<?xml version="1.0" encoding="UTF-8"?>

<!-- generated on 2026-05-17T21:40:22.218759+07:00 by Eclipse SUMO duarouter 1.26.0
<duarouterConfiguration xmlns:xsi="http://www.w3.org/2001/XMLSchema-instance" xsi:noNamespaceSchemaLocation="http://sumo.dlr.de/xsd/duarouterConfiguration.xsd">

    <input>
        <net-file value="map.net.xml"/>
        <route-files value="trips.xml"/>
    </input>

    <output>
        <output-file value="cars.rou.xml"/>
    </output>

    <processing>
        <remove-loops value="true"/>
        <routing-algorithm value="dijkstra"/>
    </processing>

</duarouterConfiguration>
-->

<routes xmlns:xsi="http://www.w3.org/2001/XMLSchema-instance" xsi:noNamespaceSchemaLocation="http://sumo.dlr.de/xsd/routes_file.xsd">
    <vType id="motorcycle" length="1.80" minGap="1.20" speedFactor="normc(1.00,0.08,0.20,2.00)" vClass="motorcycle" impatience="0.00" guiShape="motorcycle" width="0.65" color="red" lcStrategic="0.8" lcCooperative="0.7" lcSpeedGain="1.2" lcKeepRight="0" lcAssertive="0.9" lcSigma="0.15" jmIgnoreFoeSpeed="0" jmIgnoreFoeProb="0.0" jmTimegapMinor="1.5" accel="2.0" decel="4.5" emergencyDecel="8.0" sigma="0.25" tau="1.2"/>
    <vehicle id="1" type="motorcycle" depart="0.00">
        <route edges="E16 E29 E30 E31 E32 E33 E36 E39 E40 -E41 -E7 -E1"/>
    </vehicle>
    <vType id="passenger" length="4.50" minGap="1.80" speedFactor="normc(1.00,0.05,0.20,2.00)" vClass="passenger" impatience="0.00" width="1.80" color="blue" lcStrategic="1.0" lcCooperative="0.8" lcSpeedGain="1.1" lcKeepRight="0.2" lcAssertive="0.8" lcSigma="0.1" jmIgnoreFoeSpeed="0" jmIgnoreFoeProb="0.0" jmTimegapMinor="1.5" accel="1.0" decel="4.5" emergencyDecel="9.0" sigma="0.2" tau="1.3"/>
    <vehicle id="5554" type="passenger" depart="0.00">
        <route edges="E16 E29 E30 E31 E32 E33 E36 E39 E40 -E41 -E7 -E1"/>
    </vehicle>
    <vehicle id="2" type="motorcycle" depart="2.00">
        <route edges="E39 E40 -E41"/>
    </vehicle>
    <vehicle id="3" type="motorcycle" depart="4.00">
        <route edges="E33 E34 E35 -E16"/>
    </vehicle>
    <vehicle id="5555" type="passenger" depart="4.00">
        <route edges="E39 E40 -E41"/>
    </vehicle>
    <vehicle id="4" type="motorcycle" depart="6.00">
        <route edges="-E46 E39 E40 -E41 -E7 -E1"/>
    </vehicle>
    <vehicle id="5" type="motorcycle" depart="8.00">
        <route edges="-E37 -E15 -E7 -E1 E2"/>
    </vehicle>
    <vehicle id="5556" type="passenger" depart="8.00">
        <route edges="E33 E34 E35 -E16"/>
    </vehicle>
    <vehicle id="6" type="motorcycle" depart="10.00">
        <route edges="E1 E7 E41 -E40"/>
    </vehicle>
    <vehicle id="7" type="motorcycle" depart="12.00">
        <route edges="E16 E29 E30 E31 E32 E33 E36 E39 E40 -E41 -E7 -E1 E3"/>
    </vehicle>
    <vehicle id="5557" type="passenger" depart="12.00">
        <route edges="-E46 E39 E40 -E41 -E7 -E1"/>
    </vehicle>
    <vehicle id="8" type="motorcycle" depart="14.00">
        <route edges="-E37 E16 E29 E30 E31"/>
    </vehicle>
    <vehicle id="9" type="motorcycle" depart="16.00">
        <route edges="E32 E33 E36 E39 E40 -E41 -E7 -E1 -E0"/>
    </vehicle>
    <vehicle id="5558" type="passenger" depart="16.00">
        <route edges="-E37 -E15 -E7 -E1 E2"/>
    </vehicle>
    <vehicle id="10" type="motorcycle" depart="18.00">
        <route edges="E32 E33 E36"/>
    </vehicle>
    <vehicle id="11" type="motorcycle" depart="20.00">
        <route edges="-E42 -E40 -E39 -E36"/>
    </vehicle>
    <vehicle id="5559" type="passenger" depart="20.00">
        <route edges="E1 E7 E41 -E40"/>
    </vehicle>
    <vehicle id="12" type="motorcycle" depart="22.00">
        <route edges="-E15 -E7 E12 E11"/>
    </vehicle>
    <vehicle id="13" type="motorcycle" depart="24.00">
        <route edges="E34 E35 E29 E30 E31"/>
    </vehicle>
    <vehicle id="5560" type="passenger" depart="24.00">
        <route edges="E16 E29 E30 E31 E32 E33 E36 E39 E40 -E41 -E7 -E1 E3"/>
    </vehicle>
    <vehicle id="14" type="motorcycle" depart="26.00">
        <route edges="E32 E33 E34 E35 -E16 E37"/>
    </vehicle>
    <vehicle id="15" type="motorcycle" depart="28.00">
        <route edges="-E44 -E7 -E1 E3"/>
    </vehicle>
    <vehicle id="5561" type="passenger" depart="28.00">
        <route edges="-E37 E16 E29 E30 E31"/>
    </vehicle>
    <vehicle id="16" type="motorcycle" depart="30.00">
        <route edges="E33 E34 E35 E29 E30 E31 E32"/>
    </vehicle>
    <vehicle id="17" type="motorcycle" depart="32.00">
        <route edges="E35 E29 E30"/>
    </vehicle>
    <vehicle id="5562" type="passenger" depart="32.00">
        <route edges="E32 E33 E36 E39 E40 -E41 -E7 -E1 -E0"/>
    </vehicle>
    <vehicle id="18" type="motorcycle" depart="34.00">
        <route edges="E29 E30 E31 E32 E33 E36 E39 E40 -E41 -E7 -E1"/>
    </vehicle>
    <vehicle id="19" type="motorcycle" depart="36.00">
        <route edges="-E37 -E15 -E7 -E1"/>
    </vehicle>
    <vehicle id="5563" type="passenger" depart="36.00">
        <route edges="E32 E33 E36"/>
    </vehicle>
    <vehicle id="20" type="motorcycle" depart="38.00">
        <route edges="-E11 -E3 E1 E7"/>
    </vehicle>
    <vehicle id="21" type="motorcycle" depart="40.00">
        <route edges="E16 E29 E30 E31 E32 E33 E36 E39 E40 -E41 -E7 E12"/>
    </vehicle>
    <vehicle id="5564" type="passenger" depart="40.00">
        <route edges="-E42 -E40 -E39 -E36"/>
    </vehicle>
    <vehicle id="22" type="motorcycle" depart="42.00">
        <route edges="-E43 -E41"/>
    </vehicle>
    <vehicle id="23" type="motorcycle" depart="44.00">
        <route edges="-E39 E46"/>
    </vehicle>
    <vehicle id="5565" type="passenger" depart="44.00">
        <route edges="-E15 -E7 E12 E11"/>
    </vehicle>
    <vehicle id="24" type="motorcycle" depart="46.00">
        <route edges="E16 E29 E30 E31 E32"/>
    </vehicle>
    <vehicle id="25" type="motorcycle" depart="48.00">
        <route edges="-E3 E1 E7 E15 E37"/>
    </vehicle>
    <vehicle id="5566" type="passenger" depart="48.00">
        <route edges="E34 E35 E29 E30 E31"/>
    </vehicle>
    <vehicle id="26" type="motorcycle" depart="50.00">
        <route edges="E7 E15 E16 E29 E30 E31 E32 E33"/>
    </vehicle>
    <vehicle id="27" type="motorcycle" depart="52.00">
        <route edges="E33 E36 E39"/>
    </vehicle>
    <vehicle id="5567" type="passenger" depart="52.00">
        <route edges="E32 E33 E34 E35 -E16 E37"/>
    </vehicle>
    <vehicle id="28" type="motorcycle" depart="54.00">
        <route edges="-E37 -E15 -E7 -E1"/>
    </vehicle>
    <vehicle id="29" type="motorcycle" depart="56.00">
        <route edges="-E37 E16 E29 E30 E31 E32 E33 E36 E46"/>
    </vehicle>
    <vehicle id="5568" type="passenger" depart="56.00">
        <route edges="-E44 -E7 -E1 E3"/>
    </vehicle>
    <vehicle id="30" type="motorcycle" depart="58.00">
        <route edges="E35 -E16 -E15 -E7 -E1 -E0 E10"/>
    </vehicle>
    <vehicle id="31" type="motorcycle" depart="60.00">
        <route edges="E39 E40 -E41 E15 E16"/>
    </vehicle>
    <vehicle id="5569" type="passenger" depart="60.00">
        <route edges="E33 E34 E35 E29 E30 E31 E32"/>
    </vehicle>
    <vehicle id="32" type="motorcycle" depart="62.00">
        <route edges="-E39 -E36 E34 E35 -E16 -E15 -E7"/>
    </vehicle>
    <vehicle id="33" type="motorcycle" depart="64.00">
        <route edges="-E45 E16 E29 E30 E31 E32 E33 E36 E39 E40 -E41"/>
    </vehicle>
    <vehicle id="5570" type="passenger" depart="64.00">
        <route edges="E35 E29 E30"/>
    </vehicle>
    <vehicle id="34" type="motorcycle" depart="66.00">
        <route edges="-E7 -E1 E2"/>
    </vehicle>
    <vehicle id="35" type="motorcycle" depart="68.00">
        <route edges="-E11 -E3 E1 E7 E41"/>
    </vehicle>
    <vehicle id="5571" type="passenger" depart="68.00">
        <route edges="E29 E30 E31 E32 E33 E36 E39 E40 -E41 -E7 -E1"/>
    </vehicle>
    <vehicle id="36" type="motorcycle" depart="70.00">
        <route edges="-E15 E41 -E40 -E39 -E36 E34 E35 E29 E30 E31 E32"/>
    </vehicle>
    <vehicle id="37" type="motorcycle" depart="72.00">
        <route edges="E32 E33 E36 E39 E40 -E41 E15"/>
    </vehicle>
    <vehicle id="5572" type="passenger" depart="72.00">
        <route edges="-E37 -E15 -E7 -E1"/>
    </vehicle>
    <vehicle id="38" type="motorcycle" depart="74.00">
        <route edges="E7 E15 E16 E29"/>
    </vehicle>
    <vehicle id="39" type="motorcycle" depart="76.00">
        <route edges="E41 E43"/>
    </vehicle>
    <vehicle id="5573" type="passenger" depart="76.00">
        <route edges="-E11 -E3 E1 E7"/>
    </vehicle>
    <vehicle id="40" type="motorcycle" depart="78.00">
        <route edges="-E39 -E36 E34"/>
    </vehicle>
    <vehicle id="41" type="motorcycle" depart="80.00">
        <route edges="-E15 -E7 -E1 E1 E7 E15"/>
    </vehicle>
    <vehicle id="5574" type="passenger" depart="80.00">
        <route edges="E16 E29 E30 E31 E32 E33 E36 E39 E40 -E41 -E7 E12"/>
    </vehicle>
    <vehicle id="42" type="motorcycle" depart="82.00">
        <route edges="-E7 -E1 E1 E7"/>
    </vehicle>
    <vehicle id="43" type="motorcycle" depart="84.00">
        <route edges="E0 E1 E7 E41 -E40 -E39"/>
    </vehicle>
    <vehicle id="5575" type="passenger" depart="84.00">
        <route edges="-E43 -E41"/>
    </vehicle>
    <vehicle id="44" type="motorcycle" depart="86.00">
        <route edges="E39 E40 E43"/>
    </vehicle>
    <vehicle id="45" type="motorcycle" depart="88.00">
        <route edges="-E40 -E39 -E36 E34"/>
    </vehicle>
    <vehicle id="5576" type="passenger" depart="88.00">
        <route edges="-E39 E46"/>
    </vehicle>
    <vehicle id="46" type="motorcycle" depart="90.00">
        <route edges="-E15 E41 -E40 -E39 -E36"/>
    </vehicle>
    <vehicle id="47" type="motorcycle" depart="92.00">
        <route edges="E30 E31 E32 E33 E36 E39 E40 -E41 -E7 -E1 E3"/>
    </vehicle>
    <vehicle id="5577" type="passenger" depart="92.00">
        <route edges="E16 E29 E30 E31 E32"/>
    </vehicle>
    <vehicle id="48" type="motorcycle" depart="94.00">
        <route edges="E31 E32 E33 E34 E35 E29"/>
    </vehicle>
    <vehicle id="49" type="motorcycle" depart="96.00">
        <route edges="-E0 E10"/>
    </vehicle>
    <vehicle id="5578" type="passenger" depart="96.00">
        <route edges="-E3 E1 E7 E15 E37"/>
    </vehicle>
    <vehicle id="50" type="motorcycle" depart="98.00">
        <route edges="E35 -E16 -E15 E41"/>
    </vehicle>
    <vehicle id="51" type="motorcycle" depart="100.00">
        <route edges="-E41 E15"/>
    </vehicle>
    <vehicle id="5579" type="passenger" depart="100.00">
        <route edges="E7 E15 E16 E29 E30 E31 E32 E33"/>
    </vehicle>
    <vehicle id="52" type="motorcycle" depart="102.00">
        <route edges="E35 E29 E30 E31 E32 E33 E36 E46"/>
    </vehicle>
    <vehicle id="53" type="motorcycle" depart="104.00">
        <route edges="-E11 E17"/>
    </vehicle>
    <vehicle id="5580" type="passenger" depart="104.00">
        <route edges="E33 E36 E39"/>
    </vehicle>
    <vehicle id="54" type="motorcycle" depart="106.00">
        <route edges="-E10 E0 E1 E7 E41 -E40 -E39 E38"/>
    </vehicle>
    <vehicle id="55" type="motorcycle" depart="108.00">
        <route edges="-E9 -E2 E3"/>
    </vehicle>
    <vehicle id="5581" type="passenger" depart="108.00">
        <route edges="-E37 -E15 -E7 -E1"/>
    </vehicle>
    <vehicle id="56" type="motorcycle" depart="110.00">
        <route edges="E39 E40 E43"/>
    </vehicle>
    <vehicle id="57" type="motorcycle" depart="112.00">
        <route edges="-E46 E39 E40 -E41"/>
    </vehicle>
    <vehicle id="5582" type="passenger" depart="112.00">
        <route edges="-E37 E16 E29 E30 E31 E32 E33 E36 E46"/>
    </vehicle>
    <vehicle id="58" type="motorcycle" depart="114.00">
        <route edges="-E36 E34 E35 -E16 -E15 -E7 -E1 -E0 E10"/>
    </vehicle>
    <vehicle id="59" type="motorcycle" depart="116.00">
        <route edges="E7 E15 E16 E29 E30 E31 E32 E33"/>
    </vehicle>
    <vehicle id="5583" type="passenger" depart="116.00">
        <route edges="E35 -E16 -E15 -E7 -E1 -E0 E10"/>
    </vehicle>
    <vehicle id="60" type="motorcycle" depart="118.00">
        <route edges="-E46 -E36 E34 E35 E29"/>
    </vehicle>
    <vehicle id="61" type="motorcycle" depart="120.00">
        <route edges="E35 E29 E30 E31 E32 E33 E36 E39 E40 -E41"/>
    </vehicle>
    <vehicle id="5584" type="passenger" depart="120.00">
        <route edges="E39 E40 -E41 E15 E16"/>
    </vehicle>
    <vehicle id="62" type="motorcycle" depart="122.00">
        <route edges="-E42 -E40 -E39 -E36 E34 E35 E29 E30 E31"/>
    </vehicle>
    <vehicle id="63" type="motorcycle" depart="124.00">
        <route edges="-E37 E16 E29 E30 E31 E32 E33 E36 E39 E40 -E41"/>
    </vehicle>
    <vehicle id="5585" type="passenger" depart="124.00">
        <route edges="-E39 -E36 E34 E35 -E16 -E15 -E7"/>
    </vehicle>
    <vehicle id="64" type="motorcycle" depart="126.00">
        <route edges="-E11 -E3 E1 E7 E15 E16 E29 E30 E31 E32 E33"/>
    </vehicle>
    <vehicle id="65" type="motorcycle" depart="128.00">
        <route edges="-E37 -E15 E44"/>
    </vehicle>
    <vehicle id="5586" type="passenger" depart="128.00">
        <route edges="-E45 E16 E29 E30 E31 E32 E33 E36 E39 E40 -E41"/>
    </vehicle>
    <vehicle id="66" type="motorcycle" depart="130.00">
        <route edges="E34 E35 -E16"/>
    </vehicle>
    <vehicle id="67" type="motorcycle" depart="132.00">
        <route edges="-E38 -E36 E34"/>
    </vehicle>
    <vehicle id="5587" type="passenger" depart="132.00">
        <route edges="-E7 -E1 E2"/>
    </vehicle>
    <vehicle id="68" type="motorcycle" depart="134.00">
        <route edges="E40 -E41 E15 E16 E29 E30"/>
    </vehicle>
    <vehicle id="69" type="motorcycle" depart="136.00">
        <route edges="-E9 E13 E7 E15 E16 E29 E30 E31 E32 E33 E36 E39"/>
    </vehicle>
    <vehicle id="5588" type="passenger" depart="136.00">
        <route edges="-E11 -E3 E1 E7 E41"/>
    </vehicle>
    <vehicle id="70" type="motorcycle" depart="138.00">
        <route edges="E32 E33 E34 E35 -E16 -E15 E41 -E40"/>
    </vehicle>
    <vehicle id="71" type="motorcycle" depart="140.00">
        <route edges="-E15 -E7 -E1 E1 E7 E15"/>
    </vehicle>
    <vehicle id="5589" type="passenger" depart="140.00">
        <route edges="-E15 E41 -E40 -E39 -E36 E34 E35 E29 E30 E31 E32"/>
    </vehicle>
    <vehicle id="72" type="motorcycle" depart="142.00">
        <route edges="-E45 -E15 -E7 E12 E11"/>
    </vehicle>
    <vehicle id="73" type="motorcycle" depart="144.00">
        <route edges="E35 -E16 -E15 -E7"/>
    </vehicle>
    <vehicle id="5590" type="passenger" depart="144.00">
        <route edges="E32 E33 E36 E39 E40 -E41 E15"/>
    </vehicle>
    <vehicle id="74" type="motorcycle" depart="146.00">
        <route edges="E36 E39 E40 -E41 E15 E16"/>
    </vehicle>
    <vehicle id="75" type="motorcycle" depart="148.00">
        <route edges="-E38 -E36 E34 E35 -E16 E45"/>
    </vehicle>
    <vehicle id="5591" type="passenger" depart="148.00">
        <route edges="E7 E15 E16 E29"/>
    </vehicle>
    <vehicle id="76" type="motorcycle" depart="150.00">
        <route edges="E7 E41 E43"/>
    </vehicle>
    <vehicle id="77" type="motorcycle" depart="152.00">
        <route edges="E7 E41"/>
    </vehicle>
    <vehicle id="5592" type="passenger" depart="152.00">
        <route edges="E41 E43"/>
    </vehicle>
    <vehicle id="78" type="motorcycle" depart="154.00">
        <route edges="E41 -E40 -E39 -E36 E34 E35 -E16 E45"/>
    </vehicle>
    <vehicle id="79" type="motorcycle" depart="156.00">
        <route edges="E34 E35 -E16 -E15 E41 -E40 -E39"/>
    </vehicle>
    <vehicle id="5593" type="passenger" depart="156.00">
        <route edges="-E39 -E36 E34"/>
    </vehicle>
    <vehicle id="80" type="motorcycle" depart="158.00">
        <route edges="-E9 E13 E7 E15"/>
    </vehicle>
    <vehicle id="81" type="motorcycle" depart="160.00">
        <route edges="-E45 -E15"/>
    </vehicle>
    <vehicle id="5594" type="passenger" depart="160.00">
        <route edges="-E15 -E7 -E1 E1 E7 E15"/>
    </vehicle>
    <vehicle id="82" type="motorcycle" depart="162.00">
        <route edges="-E44 -E7 -E1 E2 E9"/>
    </vehicle>
    <vehicle id="83" type="motorcycle" depart="164.00">
        <route edges="-E39 -E36 E34 E35 E29 E30 E31 E32 E33 E36 E39"/>
    </vehicle>
    <vehicle id="5595" type="passenger" depart="164.00">
        <route edges="-E7 -E1 E1 E7"/>
    </vehicle>
    <vehicle id="84" type="motorcycle" depart="166.00">
        <route edges="E7 E15"/>
    </vehicle>
    <vehicle id="85" type="motorcycle" depart="168.00">
        <route edges="-E15 -E7 -E1 E2 E9"/>
    </vehicle>
    <vehicle id="5596" type="passenger" depart="168.00">
        <route edges="E0 E1 E7 E41 -E40 -E39"/>
    </vehicle>
    <vehicle id="86" type="motorcycle" depart="170.00">
        <route edges="-E2 E1"/>
    </vehicle>
    <vehicle id="87" type="motorcycle" depart="172.00">
        <route edges="E41 -E40 -E39 -E36 E34 E35 E29 E30"/>
    </vehicle>
    <vehicle id="5597" type="passenger" depart="172.00">
        <route edges="E39 E40 E43"/>
    </vehicle>
    <vehicle id="88" type="motorcycle" depart="174.00">
        <route edges="-E10 E0 E1 E7 E15 E16 E29 E30 E31"/>
    </vehicle>
    <vehicle id="89" type="motorcycle" depart="176.00">
        <route edges="E0 E1 E7 E41 E42"/>
    </vehicle>
    <vehicle id="5598" type="passenger" depart="176.00">
        <route edges="-E40 -E39 -E36 E34"/>
    </vehicle>
    <vehicle id="90" type="motorcycle" depart="178.00">
        <route edges="-E2 E1 E7"/>
    </vehicle>
    <vehicle id="91" type="motorcycle" depart="180.00">
        <route edges="-E11 -E3 E1 E7 E41 -E40 -E39"/>
    </vehicle>
    <vehicle id="5599" type="passenger" depart="180.00">
        <route edges="-E15 E41 -E40 -E39 -E36"/>
    </vehicle>
    <vehicle id="92" type="motorcycle" depart="182.00">
        <route edges="E36 E39 E40 -E41 -E7"/>
    </vehicle>
    <vehicle id="93" type="motorcycle" depart="184.00">
        <route edges="-E46 -E36 E34 E35 E29 E30 E31"/>
    </vehicle>
    <vehicle id="5600" type="passenger" depart="184.00">
        <route edges="E30 E31 E32 E33 E36 E39 E40 -E41 -E7 -E1 E3"/>
    </vehicle>
    <vehicle id="94" type="motorcycle" depart="186.00">
        <route edges="E1 E7 E41 -E40 -E39 E46"/>
    </vehicle>
    <vehicle id="95" type="motorcycle" depart="188.00">
        <route edges="-E36 E34 E35 E29 E30 E31 E32 E33 E36"/>
    </vehicle>
    <vehicle id="5601" type="passenger" depart="188.00">
        <route edges="E31 E32 E33 E34 E35 E29"/>
    </vehicle>
    <vehicle id="96" type="motorcycle" depart="190.00">
        <route edges="-E41 E15 E16 E29 E30 E31 E32 E33 E36 E38"/>
    </vehicle>
    <vehicle id="97" type="motorcycle" depart="192.00">
        <route edges="-E11 -E3 E1 E7 E15 E16"/>
    </vehicle>
    <vehicle id="5602" type="passenger" depart="192.00">
        <route edges="-E0 E10"/>
    </vehicle>
    <vehicle id="98" type="motorcycle" depart="194.00">
        <route edges="-E7 -E1 E2 E9"/>
    </vehicle>
    <vehicle id="99" type="motorcycle" depart="196.00">
        <route edges="-E11 -E3 E1 E7 E15"/>
    </vehicle>
    <vehicle id="5603" type="passenger" depart="196.00">
        <route edges="E35 -E16 -E15 E41"/>
    </vehicle>
    <vehicle id="100" type="motorcycle" depart="198.00">
        <route edges="-E39 E46"/>
    </vehicle>
    <vehicle id="101" type="motorcycle" depart="200.00">
        <route edges="E35 E29 E30 E31 E32 E33 E36 E39 E40 E43"/>
    </vehicle>
    <vehicle id="5604" type="passenger" depart="200.00">
        <route edges="-E41 E15"/>
    </vehicle>
    <vehicle id="102" type="motorcycle" depart="202.00">
        <route edges="-E43 -E40 -E39 -E36"/>
    </vehicle>
    <vehicle id="103" type="motorcycle" depart="204.00">
        <route edges="E33 E36"/>
    </vehicle>
    <vehicle id="5605" type="passenger" depart="204.00">
        <route edges="E35 E29 E30 E31 E32 E33 E36 E46"/>
    </vehicle>
    <vehicle id="104" type="motorcycle" depart="206.00">
        <route edges="-E41 -E7 -E1 E2 E9"/>
    </vehicle>
    <vehicle id="105" type="motorcycle" depart="208.00">
        <route edges="E33 E36 E39 E40 -E41 -E7 -E1"/>
    </vehicle>
    <vehicle id="5606" type="passenger" depart="208.00">
        <route edges="-E11 E17"/>
    </vehicle>
    <vehicle id="106" type="motorcycle" depart="210.00">
        <route edges="-E15 -E7 -E1 E3"/>
    </vehicle>
    <vehicle id="107" type="motorcycle" depart="212.00">
        <route edges="-E39 -E36 E34 E35 E29 E30 E31 E32"/>
    </vehicle>
    <vehicle id="5607" type="passenger" depart="212.00">
        <route edges="-E10 E0 E1 E7 E41 -E40 -E39 E38"/>
    </vehicle>
    <vehicle id="108" type="motorcycle" depart="214.00">
        <route edges="E35 -E16 -E15 E41 -E40"/>
    </vehicle>
    <vehicle id="109" type="motorcycle" depart="216.00">
        <route edges="E0 E1 E7 E44"/>
    </vehicle>
    <vehicle id="5608" type="passenger" depart="216.00">
        <route edges="-E9 -E2 E3"/>
    </vehicle>
    <vehicle id="110" type="motorcycle" depart="218.00">
        <route edges="E34 E35 -E16"/>
    </vehicle>
    <vehicle id="111" type="motorcycle" depart="220.00">
        <route edges="E3"/>
    </vehicle>
    <vehicle id="5609" type="passenger" depart="220.00">
        <route edges="E39 E40 E43"/>
    </vehicle>
    <vehicle id="112" type="motorcycle" depart="222.00">
        <route edges="-E46 E39 E40 -E41 -E7 -E1 -E0"/>
    </vehicle>
    <vehicle id="113" type="motorcycle" depart="224.00">
        <route edges="-E11 -E3 E1 E7 E41 E43"/>
    </vehicle>
    <vehicle id="5610" type="passenger" depart="224.00">
        <route edges="-E46 E39 E40 -E41"/>
    </vehicle>
    <vehicle id="114" type="motorcycle" depart="226.00">
        <route edges="E36 E39 E40 -E41 -E7 -E1 E3"/>
    </vehicle>
    <vehicle id="115" type="motorcycle" depart="228.00">
        <route edges="E33 E34 E35 E29 E30 E31"/>
    </vehicle>
    <vehicle id="5611" type="passenger" depart="228.00">
        <route edges="-E36 E34 E35 -E16 -E15 -E7 -E1 -E0 E10"/>
    </vehicle>
    <vehicle id="116" type="motorcycle" depart="230.00">
        <route edges="-E41 E44"/>
    </vehicle>
    <vehicle id="117" type="motorcycle" depart="232.00">
        <route edges="E32 E33 E36 E39 E40 E43"/>
    </vehicle>
    <vehicle id="5612" type="passenger" depart="232.00">
        <route edges="E7 E15 E16 E29 E30 E31 E32 E33"/>
    </vehicle>
    <vehicle id="118" type="motorcycle" depart="234.00">
        <route edges="E36 E39 E40 -E41"/>
    </vehicle>
    <vehicle id="119" type="motorcycle" depart="236.00">
        <route edges="E31 E32 E33 E36 E39 E40 -E41 E44"/>
    </vehicle>
    <vehicle id="5613" type="passenger" depart="236.00">
        <route edges="-E46 -E36 E34 E35 E29"/>
    </vehicle>
    <vehicle id="120" type="motorcycle" depart="238.00">
        <route edges="-E45 E16 E29 E30 E31 E32"/>
    </vehicle>
    <vehicle id="121" type="motorcycle" depart="240.00">
        <route edges="-E2 E1 E7 E15 E45"/>
    </vehicle>
    <vehicle id="5614" type="passenger" depart="240.00">
        <route edges="E35 E29 E30 E31 E32 E33 E36 E39 E40 -E41"/>
    </vehicle>
    <vehicle id="122" type="motorcycle" depart="242.00">
        <route edges="E35 -E16 -E15 -E7"/>
    </vehicle>
    <vehicle id="123" type="motorcycle" depart="244.00">
        <route edges="E32 E33 E36 E39 E40 E43"/>
    </vehicle>
    <vehicle id="5615" type="passenger" depart="244.00">
        <route edges="-E42 -E40 -E39 -E36 E34 E35 E29 E30 E31"/>
    </vehicle>
    <vehicle id="124" type="motorcycle" depart="246.00">
        <route edges="E1 E7 E15 E37"/>
    </vehicle>
    <vehicle id="125" type="motorcycle" depart="248.00">
        <route edges="-E42 -E40 -E39 E46"/>
    </vehicle>
    <vehicle id="5616" type="passenger" depart="248.00">
        <route edges="-E37 E16 E29 E30 E31 E32 E33 E36 E39 E40 -E41"/>
    </vehicle>
    <vehicle id="126" type="motorcycle" depart="250.00">
        <route edges="E32 E33 E36 E39 E40 E43"/>
    </vehicle>
    <vehicle id="127" type="motorcycle" depart="252.00">
        <route edges="E35 E29 E30 E31 E32 E33 E36 E39 E40 E42"/>
    </vehicle>
    <vehicle id="5617" type="passenger" depart="252.00">
        <route edges="-E11 -E3 E1 E7 E15 E16 E29 E30 E31 E32 E33"/>
    </vehicle>
    <vehicle id="128" type="motorcycle" depart="254.00">
        <route edges="-E37 -E15 E41"/>
    </vehicle>
    <vehicle id="129" type="motorcycle" depart="256.00">
        <route edges="-E7 -E1 -E0 E10"/>
    </vehicle>
    <vehicle id="5618" type="passenger" depart="256.00">
        <route edges="-E37 -E15 E44"/>
    </vehicle>
    <vehicle id="130" type="motorcycle" depart="258.00">
        <route edges="E32 E33 E36 E39 E40 -E41"/>
    </vehicle>
    <vehicle id="131" type="motorcycle" depart="260.00">
        <route edges="E1 E7 E41 -E40"/>
    </vehicle>
    <vehicle id="5619" type="passenger" depart="260.00">
        <route edges="E34 E35 -E16"/>
    </vehicle>
    <vehicle id="132" type="motorcycle" depart="262.00">
        <route edges="-E42 E43"/>
    </vehicle>
    <vehicle id="133" type="motorcycle" depart="264.00">
        <route edges="-E15 -E7 -E1"/>
    </vehicle>
    <vehicle id="5620" type="passenger" depart="264.00">
        <route edges="-E38 -E36 E34"/>
    </vehicle>
    <vehicle id="134" type="motorcycle" depart="266.00">
        <route edges="-E7 -E1 E3"/>
    </vehicle>
    <vehicle id="135" type="motorcycle" depart="268.00">
        <route edges="E41 -E40 -E39"/>
    </vehicle>
    <vehicle id="5621" type="passenger" depart="268.00">
        <route edges="E40 -E41 E15 E16 E29 E30"/>
    </vehicle>
    <vehicle id="136" type="motorcycle" depart="270.00">
        <route edges="-E15 -E7 -E1 E1 E7 E15"/>
    </vehicle>
    <vehicle id="137" type="motorcycle" depart="272.00">
        <route edges="-E41 -E7 -E1 E2"/>
    </vehicle>
    <vehicle id="5622" type="passenger" depart="272.00">
        <route edges="-E9 E13 E7 E15 E16 E29 E30 E31 E32 E33 E36 E39"/>
    </vehicle>
    <vehicle id="138" type="motorcycle" depart="274.00">
        <route edges="-E44 E15 E16 E29 E30"/>
    </vehicle>
    <vehicle id="139" type="motorcycle" depart="276.00">
        <route edges="-E38 -E36"/>
    </vehicle>
    <vehicle id="5623" type="passenger" depart="276.00">
        <route edges="E32 E33 E34 E35 -E16 -E15 E41 -E40"/>
    </vehicle>
    <vehicle id="140" type="motorcycle" depart="278.00">
        <route edges="-E43 -E40 -E39 -E36 E34 E35 -E16"/>
    </vehicle>
    <vehicle id="141" type="motorcycle" depart="280.00">
        <route edges="E41 E42"/>
    </vehicle>
    <vehicle id="5624" type="passenger" depart="280.00">
        <route edges="-E15 -E7 -E1 E1 E7 E15"/>
    </vehicle>
    <vehicle id="142" type="motorcycle" depart="282.00">
        <route edges="E29 E30 E31 E32 E33 E36 E39 E40 -E41 -E7 -E1"/>
    </vehicle>
    <vehicle id="143" type="motorcycle" depart="284.00">
        <route edges="-E45 -E15 -E7 -E1"/>
    </vehicle>
    <vehicle id="5625" type="passenger" depart="284.00">
        <route edges="-E45 -E15 -E7 E12 E11"/>
    </vehicle>
    <vehicle id="144" type="motorcycle" depart="286.00">
        <route edges="-E16 -E15"/>
    </vehicle>
    <vehicle id="145" type="motorcycle" depart="288.00">
        <route edges="E40 -E41 E15 E16 E29"/>
    </vehicle>
    <vehicle id="5626" type="passenger" depart="288.00">
        <route edges="E35 -E16 -E15 -E7"/>
    </vehicle>
    <vehicle id="146" type="motorcycle" depart="290.00">
        <route edges="E36 E39 E40 -E41 E15 E16 E29 E30 E31 E32"/>
    </vehicle>
    <vehicle id="147" type="motorcycle" depart="292.00">
        <route edges="-E40 -E39 -E36 E34 E35 -E16 -E15 -E7 -E1 E3"/>
    </vehicle>
    <vehicle id="5627" type="passenger" depart="292.00">
        <route edges="E36 E39 E40 -E41 E15 E16"/>
    </vehicle>
    <vehicle id="148" type="motorcycle" depart="294.00">
        <route edges="-E46 -E36 E34 E35 E29 E30"/>
    </vehicle>
    <vehicle id="149" type="motorcycle" depart="296.00">
        <route edges="E7 E15"/>
    </vehicle>
    <vehicle id="5628" type="passenger" depart="296.00">
        <route edges="-E38 -E36 E34 E35 -E16 E45"/>
    </vehicle>
    <vehicle id="150" type="motorcycle" depart="298.00">
        <route edges="-E9 E13 E7 E44"/>
    </vehicle>
    <vehicle id="151" type="motorcycle" depart="300.00">
        <route edges="E32 E33 E34 E35 -E16 -E15 E41 -E40 -E39"/>
    </vehicle>
    <vehicle id="5629" type="passenger" depart="300.00">
        <route edges="E7 E41 E43"/>
    </vehicle>
    <vehicle id="152" type="motorcycle" depart="302.00">
        <route edges="-E11 -E3 E1 E7 E15 E16 E29"/>
    </vehicle>
    <vehicle id="153" type="motorcycle" depart="304.00">
        <route edges="E16 E29 E30 E31 E32 E33 E36 E39 E40 -E41 -E7 E12 E11"/>
    </vehicle>
    <vehicle id="5630" type="passenger" depart="304.00">
        <route edges="E7 E41"/>
    </vehicle>
    <vehicle id="154" type="motorcycle" depart="306.00">
        <route edges="E33 E36 E38"/>
    </vehicle>
    <vehicle id="155" type="motorcycle" depart="308.00">
        <route edges="-E36 E34 E35 -E16 -E15 -E7 -E1"/>
    </vehicle>
    <vehicle id="5631" type="passenger" depart="308.00">
        <route edges="E41 -E40 -E39 -E36 E34 E35 -E16 E45"/>
    </vehicle>
    <vehicle id="156" type="motorcycle" depart="310.00">
        <route edges="E34 E35 -E16"/>
    </vehicle>
    <vehicle id="157" type="motorcycle" depart="312.00">
        <route edges="-E45 E16 E29 E30 E31 E32 E33"/>
    </vehicle>
    <vehicle id="5632" type="passenger" depart="312.00">
        <route edges="E34 E35 -E16 -E15 E41 -E40 -E39"/>
    </vehicle>
    <vehicle id="158" type="motorcycle" depart="314.00">
        <route edges="-E36 E34 E35"/>
    </vehicle>
    <vehicle id="159" type="motorcycle" depart="316.00">
        <route edges="E0 E1 E7"/>
    </vehicle>