<?xml version="1.0" encoding="UTF-8"?>

<!-- generated on 2026-05-13T01:31:03.118229+07:00 by Eclipse SUMO netedit 1.26.0
<neteditConfiguration xmlns:xsi="http://www.w3.org/2001/XMLSchema-instance" xsi:noNamespaceSchemaLocation="http://sumo.dlr.de/xsd/neteditConfiguration.xsd">

    <input>
        <sumo-net-file value="map.net.xml"/>
    </input>

    <output>
        <output-file value="map.net.xml"/>
    </output>

    <processing>
        <geometry.min-radius.fix.railways value="false"/>
        <geometry.avoid-overlap value="false"/>
        <geometry.max-grade.fix value="false"/>
        <offset.disable-normalization value="true"/>
        <lefthand value="0"/>
    </processing>

    <junctions>
        <no-turnarounds value="true"/>
        <junctions.corner-detail value="5"/>
        <junctions.limit-turn-speed value="5.50"/>
        <rectangular-lane-cut value="0"/>
    </junctions>

    <pedestrian>
        <walkingareas value="0"/>
    </pedestrian>

</neteditConfiguration>
-->

<net version="1.20" junctionCornerDetail="5" limitTurnSpeed="5.50" avoidOverlap="0" xmlns:xsi="http://www.w3.org/2001/XMLSchema-instance" xsi:noNamespaceSchemaLocation="http://sumo.dlr.de/xsd/net_file.xsd">

    <location netOffset="0.00,0.00" convBoundary="24.32,-44.01,266.39,140.54" origBoundary="-10000000000.00,-10000000000.00,10000000000.00,10000000000.00" projParameter="!"/>

    <edge id=":J11_0" function="internal">
        <lane id=":J11_0_0" index="0" speed="7.84" length="11.93" shape="153.11,26.99 149.78,27.31 147.22,28.49 145.43,30.51 144.41,33.40"/>
    </edge>
    <edge id=":J11_1" function="internal">
        <lane id=":J11_1_0" index="0" speed="13.89" length="22.66" shape="153.11,26.99 146.74,26.78 141.72,26.49 136.72,26.03 130.38,25.29"/>
        <lane id=":J11_1_1" index="1" speed="13.89" length="22.66" shape="153.21,23.80 146.88,23.58 141.97,23.31 137.06,22.85 130.78,22.11"/>
    </edge>
    <edge id=":J11_3" function="internal">
        <lane id=":J11_3_0" index="0" speed="9.03" length="5.11" shape="153.21,23.80 148.18,22.92"/>
    </edge>
    <edge id=":J11_16" function="internal">
        <lane id=":J11_16_0" index="0" speed="9.03" length="15.54" shape="148.18,22.92 147.50,22.80 143.78,20.21 142.07,16.02 142.35,10.23"/>
    </edge>
    <edge id=":J11_4" function="internal">
        <lane id=":J11_4_0" index="0" speed="6.18" length="9.05" shape="148.64,11.45 148.51,13.99 149.26,15.83 150.89,16.96 153.39,17.40"/>
    </edge>
    <edge id=":J11_5" function="internal">
        <lane id=":J11_5_0" index="0" speed="13.89" length="22.35" shape="148.64,11.45 144.41,33.40"/>
        <lane id=":J11_5_1" index="1" speed="13.89" length="22.35" shape="145.49,10.84 141.26,32.80"/>
    </edge>
    <edge id=":J11_7" function="internal">
        <lane id=":J11_7_0" index="0" speed="9.84" length="5.28" shape="145.49,10.84 143.81,15.84"/>
    </edge>
    <edge id=":J11_17" function="internal">
        <lane id=":J11_17_0" index="0" speed="9.84" length="15.55" shape="143.81,15.84 143.64,16.34 140.57,20.05 136.28,21.98 130.78,22.11"/>
    </edge>
    <edge id=":J11_8" function="internal">
        <lane id=":J11_8_0" index="0" speed="7.30" length="11.02" shape="131.57,15.76 134.41,15.67 136.63,14.62 138.23,12.60 139.21,9.62"/>
    </edge>
    <edge id=":J11_9" function="internal">
        <lane id=":J11_9_0" index="0" speed="13.89" length="22.05" shape="131.57,15.76 137.76,16.50 142.45,16.93 147.16,17.19 153.39,17.40"/>
        <lane id=":J11_9_1" index="1" speed="13.89" length="22.05" shape="131.17,18.94 137.41,19.68 142.21,20.12 147.02,20.39 153.30,20.60"/>
    </edge>
    <edge id=":J11_11" function="internal">
        <lane id=":J11_11_0" index="0" speed="9.16" length="4.78" shape="131.17,18.94 135.79,20.20"/>
    </edge>
    <edge id=":J11_18" function="internal">
        <lane id=":J11_18_0" index="0" speed="9.16" length="15.07" shape="135.79,20.20 136.47,20.38 139.91,23.17 141.51,27.31 141.26,32.80"/>
    </edge>
    <edge id=":J11_12" function="internal">
        <lane id=":J11_12_0" index="0" speed="6.37" length="9.04" shape="134.98,31.60 135.09,29.10 134.36,27.22 132.79,25.95 130.38,25.29"/>
    </edge>
    <edge id=":J11_13" function="internal">
        <lane id=":J11_13_0" index="0" speed="13.89" length="22.38" shape="134.98,31.60 139.21,9.62"/>
        <lane id=":J11_13_1" index="1" speed="13.89" length="22.38" shape="138.12,32.20 142.35,10.23"/>
    </edge>
    <edge id=":J11_15" function="internal">
        <lane id=":J11_15_0" index="0" speed="10.26" length="4.98" shape="138.12,32.20 139.75,27.49"/>
    </edge>
    <edge id=":J11_19" function="internal">
        <lane id=":J11_19_0" index="0" speed="10.26" length="16.12" shape="139.75,27.49 139.93,26.98 143.06,23.31 147.52,21.18 153.30,20.60"/>
    </edge>
    <edge id=":J17_0" function="internal">
        <lane id=":J17_0_0" index="0" speed="13.11" length="22.99" shape="141.60,110.07 135.95,113.56 131.78,117.59 129.09,122.16 127.88,127.26"/>
    </edge>
    <edge id=":J17_1" function="internal">
        <lane id=":J17_1_0" index="0" speed="13.89" length="30.93" shape="141.60,110.07 134.68,113.41 127.43,116.60 120.06,119.49 112.78,121.94"/>
        <lane id=":J17_1_1" index="1" speed="13.89" length="30.93" shape="140.16,107.21 133.32,110.52 126.24,113.64 119.05,116.46 111.85,118.87"/>
    </edge>
    <edge id=":J17_3" function="internal">
        <lane id=":J17_3_0" index="0" speed="8.34" length="3.55" shape="140.16,107.21 136.72,108.08"/>
    </edge>
    <edge id=":J17_16" function="internal">
        <lane id=":J17_16_0" index="0" speed="8.34" length="19.70" shape="136.72,108.08 133.93,108.79 129.00,107.16 126.08,102.87 125.88,96.44"/>
    </edge>
    <edge id=":J17_4" function="internal">
        <lane id=":J17_4_0" index="0" speed="5.55" length="9.43" shape="132.17,97.64 131.98,100.55 132.77,102.16 134.53,102.48 137.28,101.49"/>
    </edge>
    <edge id=":J17_5" function="internal">
        <lane id=":J17_5_0" index="0" speed="13.89" length="30.11" shape="132.17,97.64 130.83,105.01 129.65,112.40 128.65,119.81 127.88,127.26"/>
        <lane id=":J17_5_1" index="1" speed="13.89" length="30.11" shape="129.02,97.04 127.68,104.46 126.48,111.96 125.47,119.49 124.69,126.99"/>
    </edge>
    <edge id=":J17_7" function="internal">
        <lane id=":J17_7_0" index="0" speed="13.89" length="6.68" shape="129.02,97.04 127.15,103.45"/>
    </edge>
    <edge id=":J17_17" function="internal">
        <lane id=":J17_17_0" index="0" speed="13.89" length="22.58" shape="127.15,103.45 126.69,105.02 123.05,111.32 118.10,115.94 111.85,118.87"/>
    </edge>
    <edge id=":J17_8" function="internal">
        <lane id=":J17_8_0" index="0" speed="12.36" length="22.29" shape="109.99,112.75 114.58,110.54 118.23,106.99 120.95,102.09 122.74,95.84"/>
    </edge>
    <edge id=":J17_9" function="internal">
        <lane id=":J17_9_0" index="0" speed="13.89" length="29.83" shape="109.99,112.75 117.03,110.40 123.87,107.72 130.59,104.74 137.28,101.49"/>
        <lane id=":J17_9_1" index="1" speed="13.89" length="29.83" shape="110.92,115.81 118.04,113.43 125.06,110.68 131.96,107.63 138.72,104.35"/>
    </edge>
    <edge id=":J17_11" function="internal">
        <lane id=":J17_11_0" index="0" speed="8.85" length="4.26" shape="110.92,115.81 115.13,115.15"/>
    </edge>
    <edge id=":J17_18" function="internal">
        <lane id=":J17_18_0" index="0" speed="8.85" length="18.44" shape="115.13,115.15 117.46,114.78 121.94,116.30 124.35,120.37 124.69,126.99"/>
    </edge>
    <edge id=":J17_12" function="internal">
        <lane id=":J17_12_0" index="0" speed="5.84" length="9.13" shape="118.32,126.43 118.18,123.77 117.21,122.13 115.41,121.52 112.78,121.94"/>
    </edge>
    <edge id=":J17_13" function="internal">
        <lane id=":J17_13_0" index="0" speed="13.89" length="30.76" shape="118.32,126.43 119.11,118.83 120.15,111.08 121.38,103.36 122.74,95.84"/>
        <lane id=":J17_13_1" index="1" speed="13.89" length="30.76" shape="121.50,126.71 122.29,119.16 123.32,111.52 124.53,103.91 125.88,96.44"/>
    </edge>
    <edge id=":J17_15" function="internal">
        <lane id=":J17_15_0" index="0" speed="13.89" length="5.85" shape="121.50,126.71 122.81,121.00"/>
    </edge>
    <edge id=":J17_19" function="internal">
        <lane id=":J17_19_0" index="0" speed="13.89" length="23.65" shape="122.81,121.00 123.05,119.95 126.43,113.97 131.66,108.77 138.72,104.35"/>
    </edge>
    <edge id=":J18_0" function="internal">
        <lane id=":J18_0_0" index="0" speed="8.42" length="9.93" shape="170.52,99.98 168.54,99.01 166.31,98.73 163.82,99.14 161.08,100.25"/>
        <lane id=":J18_0_1" index="1" speed="9.10" length="11.71" shape="170.52,99.98 167.34,98.05 164.47,96.97 161.90,96.75 159.64,97.39"/>
    </edge>
    <edge id=":J18_2" function="internal">
        <lane id=":J18_2_0" index="0" speed="13.89" length="17.40" shape="172.37,97.36 168.32,94.27 165.94,91.63 164.30,88.42 162.49,83.61"/>
    </edge>
    <edge id=":J18_3" function="internal">
        <lane id=":J18_3_0" index="0" speed="6.53" length="8.32" shape="156.76,91.67 158.61,90.39 159.68,88.81 159.97,86.92 159.49,84.72"/>
        <lane id=":J18_3_1" index="1" speed="8.03" length="13.08" shape="158.20,94.53 161.11,92.52 162.79,90.03 163.25,87.06 162.49,83.61"/>
    </edge>
    <edge id=":J2_0" function="internal">
        <lane id=":J2_0_0" index="0" speed="7.48" length="11.30" shape="96.39,19.53 93.30,19.31 90.81,20.07 88.90,21.81 87.58,24.53"/>
    </edge>
    <edge id=":J2_1" function="internal">
        <lane id=":J2_1_0" index="0" speed="13.89" length="22.40" shape="96.39,19.53 74.47,14.89"/>
    </edge>
    <edge id=":J2_2" function="internal">
        <lane id=":J2_2_0" index="0" speed="5.58" length="6.09" shape="96.39,19.53 93.36,16.45 92.91,14.74"/>
    </edge>
    <edge id=":J2_3" function="internal">
        <lane id=":J2_3_0" index="0" speed="13.89" length="22.39" shape="97.05,16.40 75.14,11.76"/>
    </edge>
    <edge id=":J2_4" function="internal">
        <lane id=":J2_4_0" index="0" speed="9.08" length="5.05" shape="97.05,16.40 92.30,14.67"/>
    </edge>
    <edge id=":J2_19" function="internal">
        <lane id=":J2_19_0" index="0" speed="5.58" length="7.93" shape="92.91,14.74 92.68,13.85 94.34,11.75 98.36,10.14"/>
    </edge>
    <edge id=":J2_20" function="internal">
        <lane id=":J2_20_0" index="0" speed="9.08" length="15.27" shape="92.30,14.67 91.72,14.46 88.52,11.31 87.45,6.95 88.50,1.38"/>
    </edge>
    <edge id=":J2_5" function="internal">
        <lane id=":J2_5_0" index="0" speed="6.26" length="9.05" shape="94.55,3.45 94.08,5.93 94.56,7.87 95.99,9.27 98.36,10.14"/>
    </edge>
    <edge id=":J2_6" function="internal">
        <lane id=":J2_6_0" index="0" speed="13.89" length="22.24" shape="94.55,3.45 87.58,24.53"/>
        <lane id=":J2_6_1" index="1" speed="13.89" length="22.24" shape="91.52,2.41 84.53,23.56"/>
    </edge>
    <edge id=":J2_8" function="internal">
        <lane id=":J2_8_0" index="0" speed="10.07" length="5.00" shape="91.52,2.41 89.27,6.88"/>
    </edge>
    <edge id=":J2_21" function="internal">
        <lane id=":J2_21_0" index="0" speed="10.07" length="15.99" shape="89.27,6.88 88.96,7.49 85.38,10.74 80.77,12.16 75.14,11.76"/>
    </edge>
    <edge id=":J2_9" function="internal">
        <lane id=":J2_9_0" index="0" speed="7.59" length="11.53" shape="76.49,5.50 79.57,5.72 82.09,4.93 84.06,3.14 85.47,0.34"/>
    </edge>
    <edge id=":J2_10" function="internal">
        <lane id=":J2_10_0" index="0" speed="13.89" length="22.36" shape="76.49,5.50 98.36,10.14"/>
        <lane id=":J2_10_1" index="1" speed="13.89" length="22.36" shape="75.82,8.63 97.70,13.27"/>
    </edge>
    <edge id=":J2_12" function="internal">
        <lane id=":J2_12_0" index="0" speed="9.13" length="4.92" shape="75.82,8.63 80.43,10.33"/>
    </edge>
    <edge id=":J2_22" function="internal">
        <lane id=":J2_22_0" index="0" speed="9.13" length="15.26" shape="80.43,10.33 81.09,10.58 84.30,13.71 85.45,18.04 84.53,23.56"/>
    </edge>
    <edge id=":J2_13" function="internal">
        <lane id=":J2_13_0" index="0" speed="6.28" length="9.03" shape="78.31,21.57 78.75,19.10 78.26,17.17 76.83,15.76 74.47,14.89"/>
        <lane id=":J2_13_1" index="1" speed="7.12" length="11.92" shape="78.31,21.57 79.18,17.76 78.94,14.86 77.59,12.85 75.14,11.76"/>
    </edge>
    <edge id=":J2_15" function="internal">
        <lane id=":J2_15_0" index="0" speed="13.89" length="22.47" shape="78.31,21.57 85.47,0.34"/>
        <lane id=":J2_15_1" index="1" speed="13.89" length="22.47" shape="78.31,21.57 80.78,15.74 83.37,11.46 85.98,7.19 88.50,1.38"/>
        <lane id=":J2_15_2" index="2" speed="13.89" length="22.47" shape="81.36,22.55 88.50,1.38"/>
    </edge>
    <edge id=":J2_18" function="internal">
        <lane id=":J2_18_0" index="0" speed="10.03" length="5.62" shape="81.36,22.55 83.86,17.51"/>
    </edge>
    <edge id=":J2_23" function="internal">
        <lane id=":J2_23_0" index="0" speed="10.03" length="15.31" shape="83.86,17.51 87.42,14.29 92.03,12.87 97.70,13.27"/>
    </edge>
    <edge id=":J3_0" function="internal">
        <lane id=":J3_0_0" index="0" speed="13.89" length="16.40" shape="121.86,24.23 117.17,24.06 113.99,24.98 111.05,26.90 107.08,29.76"/>
        <lane id=":J3_0_1" index="1" speed="13.89" length="17.45" shape="121.86,24.23 116.73,23.58 113.07,23.52 109.66,24.53 105.30,27.10"/>
    </edge>
    <edge id=":J3_2" function="internal">
        <lane id=":J3_2_0" index="0" speed="13.89" length="18.12" shape="121.86,24.23 104.14,21.16"/>
        <lane id=":J3_2_1" index="1" speed="13.89" length="18.12" shape="121.86,24.23 116.64,23.05 113.28,21.40 109.94,19.62 104.80,18.02"/>
    </edge>
    <edge id=":J3_4" function="internal">
        <lane id=":J3_4_0" index="0" speed="13.89" length="2.72" shape="122.25,21.05 119.53,21.17"/>
        <lane id=":J3_4_1" index="1" speed="13.89" length="3.91" shape="122.25,21.05 118.35,20.89"/>
    </edge>
    <edge id=":J3_6" function="internal">
        <lane id=":J3_6_0" index="0" speed="13.89" length="17.96" shape="122.25,21.05 116.88,20.86 113.15,21.38 109.45,21.77 104.14,21.16"/>
        <lane id=":J3_6_1" index="1" speed="13.89" length="17.96" shape="122.25,21.05 104.80,18.02"/>
    </edge>
    <edge id=":J3_16" function="internal">
        <lane id=":J3_16_0" index="0" speed="13.89" length="15.60" shape="119.53,21.17 117.24,21.27 114.14,23.17 111.29,26.19 107.08,29.76"/>
        <lane id=":J3_16_1" index="0" speed="13.89" length="14.80" shape="118.35,20.89 116.89,20.83 113.23,21.78 109.84,23.88 105.30,27.10"/>
    </edge>
    <edge id=":J3_8" function="internal">
        <lane id=":J3_8_0" index="0" speed="10.53" length="13.60" shape="113.69,5.44 115.98,9.27 118.30,12.09 120.66,13.90 123.04,14.70"/>
        <lane id=":J3_8_1" index="1" speed="11.23" length="15.54" shape="113.69,5.44 116.64,10.76 119.11,14.61 121.12,16.98 122.65,17.88"/>
        <lane id=":J3_8_2" index="2" speed="11.06" length="15.05" shape="110.86,6.93 112.94,9.93 115.66,12.22 119.03,13.81 123.04,14.70"/>
        <lane id=":J3_8_3" index="3" speed="11.62" length="16.67" shape="110.86,6.93 113.59,11.42 116.47,14.74 119.49,16.89 122.65,17.88"/>
    </edge>
    <edge id=":J3_12" function="internal">
        <lane id=":J3_12_0" index="0" speed="13.89" length="17.19" shape="106.11,11.76 123.04,14.70"/>
        <lane id=":J3_12_1" index="1" speed="13.89" length="17.75" shape="106.11,11.76 111.10,13.33 114.33,15.09 117.59,16.72 122.65,17.88"/>
        <lane id=":J3_12_2" index="2" speed="13.89" length="17.69" shape="105.45,14.89 110.61,15.47 114.20,15.07 117.82,14.53 123.04,14.70"/>
        <lane id=":J3_12_3" index="3" speed="13.89" length="17.45" shape="105.45,14.89 122.65,17.88"/>
    </edge>
    <edge id=":J30_0" function="internal">
        <lane id=":J30_0_0" index="0" speed="8.34" length="1.42" shape="159.35,71.06 159.40,70.43 159.48,70.00 159.65,69.60 159.95,69.04"/>
        <lane id=":J30_0_1" index="1" speed="13.89" length="1.42" shape="162.54,71.27 162.56,71.06 162.59,70.92 162.64,70.79 162.74,70.60"/>
    </edge>
    <edge id=":J31_0" function="internal">
        <lane id=":J31_0_0" index="0" speed="7.91" length="1.56" shape="174.45,53.31 175.02,52.93 175.45,52.72 175.91,52.60 176.60,52.51"/>
        <lane id=":J31_0_1" index="1" speed="13.89" length="1.56" shape="176.25,55.96 176.44,55.83 176.58,55.76 176.74,55.72 176.97,55.69"/>
    </edge>
    <edge id=":J32_0" function="internal">
        <lane id=":J32_0_0" index="0" speed="8.59" length="1.37" shape="195.97,54.74 196.54,54.94 196.92,55.12 197.26,55.37 197.70,55.78"/>
        <lane id=":J32_0_1" index="1" speed="13.89" length="1.37" shape="194.92,57.76 195.11,57.83 195.24,57.89 195.35,57.97 195.50,58.11"/>
    </edge>
    <edge id=":J33_0" function="internal">
        <lane id=":J33_0_0" index="0" speed="7.98" length="1.52" shape="208.78,70.31 209.07,70.91 209.23,71.35 209.30,71.81 209.31,72.48"/>
        <lane id=":J33_0_1" index="1" speed="13.89" length="1.52" shape="205.93,71.78 206.03,71.98 206.08,72.12 206.11,72.28 206.11,72.50"/>
    </edge>
    <edge id=":J34_0" function="internal">
        <lane id=":J34_0_0" index="0" speed="8.76" length="10.71" shape="208.47,99.21 205.42,98.15 202.70,97.81 200.32,98.20 198.27,99.30"/>
        <lane id=":J34_0_1" index="1" speed="10.00" length="14.15" shape="209.76,96.28 205.85,94.96 202.30,94.60 199.12,95.21 196.31,96.78"/>
    </edge>
    <edge id=":J34_2" function="internal">
        <lane id=":J34_2_0" index="0" speed="7.38" length="8.12" shape="209.35,83.31 209.55,85.93 210.11,87.99 211.04,89.48 212.33,90.42"/>
        <lane id=":J34_2_1" index="1" speed="8.28" length="10.39" shape="209.35,83.31 209.47,87.42 209.79,90.47 210.32,92.45 211.05,93.35"/>
    </edge>
    <edge id=":J34_4" function="internal">
        <lane id=":J34_4_0" index="0" speed="12.56" length="18.22" shape="206.17,82.12 205.57,85.64 203.72,89.26 200.64,92.97 196.31,96.78"/>
    </edge>
    <edge id=":J35_0" function="internal">
        <lane id=":J35_0_0" index="0" speed="9.94" length="1.17" shape="184.32,104.05 183.81,104.14 183.45,104.17 183.09,104.14 182.58,104.05"/>
        <lane id=":J35_0_1" index="1" speed="13.89" length="1.17" shape="183.75,100.90 183.58,100.93 183.46,100.94 183.34,100.93 183.17,100.90"/>
    </edge>
    <edge id=":J36_0" function="internal">
        <lane id=":J36_0_0" index="0" speed="5.91" length="9.10" shape="237.75,111.52 235.20,110.91 233.33,111.36 232.15,112.88 231.67,115.47"/>
    </edge>
    <edge id=":J36_1" function="internal">
        <lane id=":J36_1_0" index="0" speed="13.89" length="28.16" shape="237.75,111.52 211.72,100.63"/>
        <lane id=":J36_1_1" index="1" speed="13.89" length="28.16" shape="238.93,108.55 213.01,97.70"/>
    </edge>
    <edge id=":J36_3" function="internal">
        <lane id=":J36_3_0" index="0" speed="13.60" length="6.21" shape="238.93,108.55 233.51,105.52"/>
    </edge>
    <edge id=":J36_16" function="internal">
        <lane id=":J36_16_0" index="0" speed="13.60" length="20.86" shape="233.51,105.52 233.15,105.31 228.77,100.73 225.80,94.78 224.22,87.49"/>
    </edge>
    <edge id=":J36_4" function="internal">
        <lane id=":J36_4_0" index="0" speed="11.77" length="20.10" shape="230.59,86.80 231.75,92.32 233.92,96.80 237.09,100.22 241.28,102.59"/>
    </edge>
    <edge id=":J36_5" function="internal">
        <lane id=":J36_5_0" index="0" speed="13.89" length="28.48" shape="230.59,86.80 231.28,94.06 231.70,101.11 231.84,108.17 231.67,115.47"/>
        <lane id=":J36_5_1" index="1" speed="13.89" length="28.48" shape="227.40,87.14 228.09,94.34 228.51,101.22 228.65,108.11 228.47,115.33"/>
    </edge>
    <edge id=":J36_7" function="internal">
        <lane id=":J36_7_0" index="0" speed="8.80" length="5.91" shape="227.40,87.14 227.26,93.06"/>
    </edge>
    <edge id=":J36_17" function="internal">
        <lane id=":J36_17_0" index="0" speed="8.80" length="18.44" shape="227.26,93.06 227.23,94.45 224.77,98.65 220.03,99.73 213.01,97.70"/>
    </edge>
    <edge id=":J36_8" function="internal">
        <lane id=":J36_8_0" index="0" speed="5.67" length="9.24" shape="215.58,91.84 218.25,92.61 220.04,92.20 220.98,90.61 221.04,87.84"/>
    </edge>
    <edge id=":J36_9" function="internal">
        <lane id=":J36_9_0" index="0" speed="13.89" length="27.91" shape="215.58,91.84 241.28,102.59"/>
        <lane id=":J36_9_1" index="1" speed="13.89" length="27.91" shape="214.29,94.77 240.10,105.57"/>
    </edge>
    <edge id=":J36_11" function="internal">
        <lane id=":J36_11_0" index="0" speed="12.67" length="5.53" shape="214.29,94.77 219.08,97.54"/>
    </edge>
    <edge id=":J36_18" function="internal">
        <lane id=":J36_18_0" index="0" speed="12.67" length="21.16" shape="219.08,97.54 220.73,98.50 225.24,103.16 227.82,108.77 228.47,115.33"/>
    </edge>
    <edge id=":J36_12" function="internal">
        <lane id=":J36_12_0" index="0" speed="10.74" length="18.96" shape="222.08,115.04 221.59,110.52 219.70,106.60 216.41,103.31 211.72,100.63"/>
    </edge>
    <edge id=":J36_13" function="internal">
        <lane id=":J36_13_0" index="0" speed="13.89" length="27.50" shape="222.08,115.04 222.26,107.98 222.13,101.42 221.72,94.88 221.04,87.84"/>
        <lane id=":J36_13_1" index="1" speed="13.89" length="27.50" shape="225.28,115.19 225.45,108.04 225.32,101.32 224.91,94.61 224.22,87.49"/>
    </edge>
    <edge id=":J36_15" function="internal">
        <lane id=":J36_15_0" index="0" speed="8.88" length="4.43" shape="225.28,115.19 226.09,110.83"/>
    </edge>
    <edge id=":J36_19" function="internal">
        <lane id=":J36_19_0" index="0" speed="8.88" length="17.75" shape="226.09,110.83 226.46,108.89 229.32,105.18 233.87,104.08 240.10,105.57"/>
    </edge>
    <edge id=":J39_0" function="internal">
        <lane id=":J39_0_0" index="0" speed="13.89" length="0.38" shape="218.08,60.74 218.04,60.35"/>
        <lane id=":J39_0_1" index="1" speed="13.89" length="0.38" shape="221.27,60.39 221.23,60.03"/>
    </edge>
    <edge id=":J39_2" function="internal">
        <lane id=":J39_2_0" index="0" speed="13.89" length="0.30" shape="227.60,59.41 227.63,59.70"/>
        <lane id=":J39_2_1" index="1" speed="13.89" length="0.30" shape="224.41,59.72 224.45,60.04"/>
    </edge>
    <edge id=":J40_0" function="internal">
        <lane id=":J40_0_0" index="0" speed="8.02" length="12.88" shape="215.49,34.18 214.65,31.81 212.64,30.07 209.47,28.97 205.14,28.51"/>
    </edge>
    <edge id=":J40_1" function="internal">
        <lane id=":J40_1_0" index="0" speed="13.89" length="22.57" shape="215.49,34.18 214.68,27.98 213.54,23.36 211.84,18.89 209.35,13.12"/>
        <lane id=":J40_1_1" index="1" speed="13.89" length="22.57" shape="218.68,33.88 217.82,27.53 216.60,22.58 214.82,17.77 212.28,11.85"/>
    </edge>
    <edge id=":J40_3" function="internal">
        <lane id=":J40_3_0" index="0" speed="10.68" length="3.97" shape="218.68,33.88 218.84,29.92"/>
    </edge>
    <edge id=":J40_16" function="internal">
        <lane id=":J40_16_0" index="0" speed="10.68" length="15.65" shape="218.84,29.92 218.88,28.88 220.54,24.62 223.66,21.11 228.24,18.35"/>
    </edge>
    <edge id=":J40_4" function="internal">
        <lane id=":J40_4_0" index="0" speed="8.34" length="11.61" shape="230.87,24.19 228.09,25.84 226.19,27.91 225.17,30.38 225.03,33.27"/>
    </edge>
    <edge id=":J40_5" function="internal">
        <lane id=":J40_5_0" index="0" speed="13.89" length="25.64" shape="230.87,24.19 224.41,26.64 218.34,28.00 212.10,28.53 205.14,28.51"/>
        <lane id=":J40_5_1" index="1" speed="13.89" length="25.64" shape="229.56,21.27 223.32,23.67 217.73,24.94 211.97,25.38 205.23,25.31"/>
    </edge>
    <edge id=":J40_7" function="internal">
        <lane id=":J40_7_0" index="0" speed="9.87" length="5.19" shape="229.56,21.27 224.52,22.50"/>
    </edge>
    <edge id=":J40_17" function="internal">
        <lane id=":J40_17_0" index="0" speed="9.87" length="17.21" shape="224.52,22.50 224.33,22.55 219.71,21.40 215.70,17.84 212.28,11.85"/>
    </edge>
    <edge id=":J40_8" function="internal">
        <lane id=":J40_8_0" index="0" speed="7.37" length="12.03" shape="218.16,9.31 220.07,12.86 222.17,15.06 224.46,15.92 226.93,15.43"/>
    </edge>
    <edge id=":J40_9" function="internal">
        <lane id=":J40_9_0" index="0" speed="13.89" length="24.56" shape="218.16,9.31 220.77,15.53 222.72,21.00 224.11,26.62 225.03,33.27"/>
        <lane id=":J40_9_1" index="1" speed="13.89" length="24.56" shape="215.22,10.58 217.80,16.65 219.66,21.79 220.96,27.07 221.84,33.58"/>
    </edge>
    <edge id=":J40_11" function="internal">
        <lane id=":J40_11_0" index="0" speed="8.82" length="5.30" shape="215.22,10.58 216.64,15.69"/>
    </edge>
    <edge id=":J40_18" function="internal">
        <lane id=":J40_18_0" index="0" speed="8.82" length="18.01" shape="216.64,15.69 217.06,17.21 216.01,21.87 212.07,24.57 205.23,25.31"/>
    </edge>
    <edge id=":J40_12" function="internal">
        <lane id=":J40_12_0" index="0" speed="5.77" length="9.16" shape="205.42,18.91 208.11,18.62 209.66,17.56 210.07,15.73 209.35,13.12"/>
    </edge>
    <edge id=":J40_13" function="internal">
        <lane id=":J40_13_0" index="0" speed="13.89" length="22.80" shape="205.42,18.91 211.72,19.07 216.50,18.82 221.13,17.75 226.93,15.43"/>
        <lane id=":J40_13_1" index="1" speed="13.89" length="22.80" shape="205.33,22.11 211.84,22.22 217.11,21.88 222.22,20.71 228.24,18.35"/>
    </edge>
    <edge id=":J40_15" function="internal">
        <lane id=":J40_15_0" index="0" speed="10.37" length="5.96" shape="205.33,22.11 211.24,22.88"/>
    </edge>
    <edge id=":J40_19" function="internal">
        <lane id=":J40_19_0" index="0" speed="10.37" length="16.25" shape="211.24,22.88 212.16,23.00 217.19,25.20 220.41,28.73 221.84,33.58"/>
    </edge>
    <edge id=":J5_0" function="internal">
        <lane id=":J5_0_0" index="0" speed="12.61" length="13.52" shape="88.62,42.13 85.33,43.96 82.83,45.16 80.97,46.82 79.57,50.02"/>
        <lane id=":J5_0_1" index="1" speed="12.97" length="13.52" shape="86.84,39.47 83.70,41.76 81.86,43.77 80.69,46.27 79.57,50.02"/>
        <lane id=":J5_0_2" index="2" speed="13.66" length="13.52" shape="86.84,39.47 83.01,41.69 80.17,43.24 78.09,45.32 76.49,49.16"/>
    </edge>
    <edge id=":J5_3" function="internal">
        <lane id=":J5_3_0" index="0" speed="13.89" length="13.72" shape="83.58,37.07 79.57,50.02"/>
        <lane id=":J5_3_1" index="1" speed="13.89" length="13.72" shape="80.51,36.17 79.73,40.18 79.95,43.07 80.21,45.97 79.57,50.02"/>
        <lane id=":J5_3_2" index="2" speed="13.89" length="13.72" shape="80.51,36.17 76.49,49.16"/>
    </edge>
    <edge id=":J5_6" function="internal">
        <lane id=":J5_6_0" index="0" speed="11.38" length="11.16" shape="70.33,47.44 70.73,44.37 70.03,42.26 68.59,40.23 66.80,37.39"/>
        <lane id=":J5_6_1" index="1" speed="11.80" length="12.03" shape="70.33,47.44 71.25,44.01 71.57,41.51 71.09,39.09 69.64,35.91"/>
    </edge>
    <edge id=":J5_8" function="internal">
        <lane id=":J5_8_0" index="0" speed="13.89" length="13.92" shape="70.33,47.44 74.13,34.30"/>
        <lane id=":J5_8_1" index="1" speed="13.89" length="13.92" shape="70.33,47.44 71.92,43.62 73.73,41.31 75.56,39.00 77.20,35.20"/>
    </edge>
    <edge id=":J5_10" function="internal">
        <lane id=":J5_10_0" index="0" speed="12.50" length="2.06" shape="73.41,48.30 73.47,46.24"/>
        <lane id=":J5_10_1" index="1" speed="12.49" length="2.89" shape="73.41,48.30 73.84,45.44"/>
    </edge>
    <edge id=":J5_12" function="internal">
        <lane id=":J5_12_0" index="0" speed="13.89" length="13.89" shape="73.41,48.30 74.04,44.21 73.74,41.29 73.45,38.37 74.13,34.30"/>
        <lane id=":J5_12_1" index="1" speed="13.89" length="13.89" shape="73.41,48.30 77.20,35.20"/>
    </edge>
    <edge id=":J5_14" function="internal">
        <lane id=":J5_14_0" index="0" speed="12.50" length="11.50" shape="73.47,46.24 73.52,44.80 71.86,42.66 69.32,40.61 66.80,37.39"/>
        <lane id=":J5_14_1" index="0" speed="12.49" length="10.65" shape="73.84,45.44 73.98,44.54 73.30,41.92 71.74,39.39 69.64,35.91"/>
    </edge>
    <edge id=":J7_0" function="internal">
        <lane id=":J7_0_0" index="0" speed="9.57" length="10.04" shape="56.33,17.28 54.57,14.17 52.93,11.88 51.42,10.39 50.04,9.73"/>
        <lane id=":J7_0_1" index="1" speed="10.48" length="12.13" shape="56.33,17.28 55.39,15.26 53.69,11.67 51.90,8.22 50.66,6.59"/>
        <lane id=":J7_0_2" index="2" speed="10.15" length="11.34" shape="59.17,15.80 57.67,13.64 55.65,11.91 53.11,10.60 50.04,9.73"/>
        <lane id=":J7_0_3" index="3" speed="10.78" length="12.87" shape="59.17,15.80 57.00,12.08 54.86,9.30 52.75,7.47 50.66,6.59"/>
    </edge>
    <edge id=":J7_4" function="internal">
        <lane id=":J7_4_0" index="0" speed="13.89" length="14.22" shape="63.78,12.60 50.04,9.73"/>
        <lane id=":J7_4_1" index="1" speed="13.89" length="14.22" shape="64.45,9.47 60.22,9.07 57.25,9.56 54.28,10.07 50.04,9.73"/>
        <lane id=":J7_4_2" index="2" speed="13.89" length="14.22" shape="64.45,9.47 50.66,6.59"/>
    </edge>
    <edge id=":J7_7" function="internal">
        <lane id=":J7_7_0" index="0" speed="12.74" length="12.89" shape="51.91,0.31 55.53,0.59 57.99,-0.19 60.32,-1.77 63.56,-3.88"/>
        <lane id=":J7_7_1" index="1" speed="13.17" length="13.80" shape="51.91,0.31 55.91,1.10 58.80,1.32 61.54,0.69 65.14,-1.10"/>
    </edge>
    <edge id=":J7_9" function="internal">
        <lane id=":J7_9_0" index="0" speed="13.89" length="14.41" shape="51.91,0.31 65.79,3.21"/>
        <lane id=":J7_9_1" index="1" speed="13.89" length="14.41" shape="51.91,0.31 55.98,1.63 58.52,3.28 61.06,4.95 65.12,6.34"/>
    </edge>
    <edge id=":J7_11" function="internal">
        <lane id=":J7_11_0" index="0" speed="13.74" length="2.24" shape="51.29,3.45 53.53,3.41"/>