<?xml version="1.0" encoding="UTF-8"?>

<!-- generated on 2026-05-20T00:03:40.474546+07:00 by Eclipse SUMO netedit 1.26.0
<neteditConfiguration xmlns:xsi="http://www.w3.org/2001/XMLSchema-instance" xsi:noNamespaceSchemaLocation="http://sumo.dlr.de/xsd/neteditConfiguration.xsd">

    <input>
        <sumo-net-file value="map.net.xml"/>
    </input>

    <output>
        <output-file value="map.net.xml"/>
    </output>

    <processing>
        <geometry.min-radius.fix.railways value="false"/>
        <geometry.avoid-overlap value="false"/>
        <geometry.max-grade.fix value="false"/>
        <offset.disable-normalization value="true"/>
        <lefthand value="0"/>
    </processing>

    <junctions>
        <no-turnarounds value="true"/>
        <junctions.corner-detail value="5"/>
        <junctions.limit-turn-speed value="5.50"/>
        <rectangular-lane-cut value="0"/>
    </junctions>

    <pedestrian>
        <walkingareas value="0"/>
    </pedestrian>

</neteditConfiguration>
-->

<net version="1.20" junctionCornerDetail="5" limitTurnSpeed="5.50" avoidOverlap="0" xmlns:xsi="http://www.w3.org/2001/XMLSchema-instance" xsi:noNamespaceSchemaLocation="http://sumo.dlr.de/xsd/net_file.xsd">

    <location netOffset="0.00,0.00" convBoundary="-81.81,-888.77,1556.40,507.35" origBoundary="-10000000000.00,-10000000000.00,10000000000.00,10000000000.00" projParameter="!"/>

    <edge id=":J102_0" function="internal">
        <lane id=":J102_0_0" index="0" speed="9.09" length="14.44" shape="781.55,431.70 777.73,431.76 774.49,430.73 771.84,428.61 769.77,425.39"/>
        <lane id=":J102_0_1" index="1" speed="7.76" length="10.32" shape="781.08,428.53 778.35,428.58 776.04,427.84 774.14,426.33 772.67,424.03"/>
    </edge>
    <edge id=":J102_2" function="internal">
        <lane id=":J102_2_0" index="0" speed="3.95" length="2.06" shape="778.46,421.30 778.75,421.76 779.13,422.07 779.59,422.21 780.14,422.20"/>
        <lane id=":J102_2_1" index="1" speed="6.16" length="6.19" shape="775.56,422.67 776.45,424.04 777.58,424.95 778.97,425.40 780.61,425.37"/>
    </edge>
    <edge id=":J105_0" function="internal">
        <lane id=":J105_0_0" index="0" speed="6.25" length="9.05" shape="1105.61,-278.96 1103.94,-280.86 1102.11,-281.67 1100.13,-281.40 1098.00,-280.04"/>
    </edge>
    <edge id=":J105_1" function="internal">
        <lane id=":J105_1_0" index="0" speed="13.89" length="30.03" shape="1105.61,-278.96 1101.56,-285.31 1097.64,-291.77 1093.86,-298.32 1090.25,-304.93"/>
        <lane id=":J105_1_1" index="1" speed="13.89" length="30.03" shape="1108.29,-280.72 1104.26,-287.02 1100.39,-293.40 1096.66,-299.87 1093.07,-306.43"/>
    </edge>
    <edge id=":J105_3" function="internal">
        <lane id=":J105_3_0" index="0" speed="11.01" length="6.35" shape="1108.29,-280.72 1105.48,-286.42"/>
    </edge>
    <edge id=":J105_18" function="internal">
        <lane id=":J105_18_0" index="0" speed="11.01" length="18.71" shape="1105.48,-286.42 1105.14,-287.12 1104.42,-293.00 1106.12,-298.36 1110.26,-303.21"/>
    </edge>
    <edge id=":J105_4" function="internal">
        <lane id=":J105_4_0" index="0" speed="8.16" length="13.35" shape="1116.51,-295.93 1113.80,-293.03 1112.42,-290.11 1112.37,-287.17 1113.64,-284.23"/>
    </edge>
    <edge id=":J105_5" function="internal">
        <lane id=":J105_5_0" index="0" speed="13.89" length="24.39" shape="1116.51,-295.93 1098.00,-280.04"/>
        <lane id=":J105_5_1" index="1" speed="13.89" length="24.39" shape="1114.43,-298.36 1095.92,-282.47"/>
        <lane id=":J105_5_2" index="2" speed="13.89" length="24.39" shape="1112.34,-300.79 1093.83,-284.90"/>
    </edge>
    <edge id=":J105_8" function="internal">
        <lane id=":J105_8_0" index="0" speed="9.56" length="4.26" shape="1112.34,-300.79 1108.69,-298.59"/>
    </edge>
    <edge id=":J105_19" function="internal">
        <lane id=":J105_19_0" index="0" speed="9.56" length="19.93" shape="1108.69,-298.59 1106.96,-297.55 1101.95,-297.41 1097.32,-300.37 1093.07,-306.43"/>
    </edge>
    <edge id=":J105_9" function="internal">
        <lane id=":J105_9_0" index="0" speed="6.09" length="9.06" shape="1098.71,-309.45 1100.23,-307.38 1101.97,-306.46 1103.92,-306.69 1106.09,-308.07"/>
    </edge>
    <edge id=":J105_10" function="internal">
        <lane id=":J105_10_0" index="0" speed="13.89" length="29.46" shape="1098.71,-309.45 1102.26,-302.96 1105.89,-296.67 1109.66,-290.46 1113.64,-284.23"/>
        <lane id=":J105_10_1" index="1" speed="13.89" length="29.46" shape="1095.89,-307.94 1099.46,-301.42 1103.14,-295.04 1106.96,-288.74 1110.96,-282.47"/>
    </edge>
    <edge id=":J105_12" function="internal">
        <lane id=":J105_12_0" index="0" speed="11.47" length="6.06" shape="1095.89,-307.94 1098.16,-302.33"/>
    </edge>
    <edge id=":J105_20" function="internal">
        <lane id=":J105_20_0" index="0" speed="11.47" length="19.18" shape="1098.16,-302.33 1098.68,-301.03 1099.27,-294.89 1097.66,-289.51 1093.83,-284.90"/>
    </edge>
    <edge id=":J105_13" function="internal">
        <lane id=":J105_13_0" index="0" speed="8.73" length="14.23" shape="1087.58,-292.19 1090.18,-295.07 1091.50,-298.16 1091.52,-301.44 1090.25,-304.93"/>
    </edge>
    <edge id=":J105_14" function="internal">
        <lane id=":J105_14_0" index="0" speed="13.89" length="24.39" shape="1087.58,-292.19 1106.09,-308.07"/>
        <lane id=":J105_14_1" index="1" speed="13.89" length="24.39" shape="1089.67,-289.76 1108.17,-305.64"/>
        <lane id=":J105_14_2" index="2" speed="13.89" length="24.39" shape="1091.75,-287.33 1110.26,-303.21"/>
    </edge>
    <edge id=":J105_17" function="internal">
        <lane id=":J105_17_0" index="0" speed="9.66" length="4.13" shape="1091.75,-287.33 1095.30,-289.44"/>
    </edge>
    <edge id=":J105_21" function="internal">
        <lane id=":J105_21_0" index="0" speed="9.66" length="19.11" shape="1095.30,-289.44 1096.80,-290.33 1101.68,-290.52 1106.40,-287.90 1110.96,-282.47"/>
    </edge>
    <edge id=":J106_0" function="internal">
        <lane id=":J106_0_0" index="0" speed="8.31" length="10.33" shape="670.66,40.78 669.15,38.09 667.39,36.16 665.37,35.00 663.10,34.60"/>
    </edge>
    <edge id=":J106_1" function="internal">
        <lane id=":J106_1_0" index="0" speed="9.27" length="18.55" shape="673.58,39.46 672.17,34.62 672.60,30.41 674.87,26.84 678.97,23.90"/>
    </edge>
    <edge id=":J106_2" function="internal">
        <lane id=":J106_2_0" index="0" speed="6.52" length="8.66" shape="681.93,29.58 680.01,30.95 678.96,32.61 678.76,34.58 679.41,36.84"/>
    </edge>
    <edge id=":J106_3" function="internal">
        <lane id=":J106_3_0" index="0" speed="13.89" length="19.06" shape="681.93,29.58 676.71,32.27 672.93,33.81 668.94,34.48 663.10,34.60"/>
        <lane id=":J106_3_1" index="1" speed="13.89" length="19.06" shape="680.45,26.74 675.65,29.23 672.17,30.65 668.49,31.28 663.12,31.40"/>
    </edge>
    <edge id=":J106_5" function="internal">
        <lane id=":J106_5_0" index="0" speed="13.89" length="15.91" shape="663.17,25.02 667.61,24.90 670.64,24.34 673.52,23.14 677.49,21.07"/>
        <lane id=":J106_5_1" index="1" speed="13.89" length="15.91" shape="663.15,28.22 668.05,28.09 671.40,27.50 674.58,26.18 678.97,23.90"/>
    </edge>
    <edge id=":J106_7" function="internal">
        <lane id=":J106_7_0" index="0" speed="10.70" length="4.03" shape="663.15,28.22 667.13,28.83"/>
    </edge>
    <edge id=":J106_8" function="internal">
        <lane id=":J106_8_0" index="0" speed="10.70" length="13.61" shape="667.13,28.83 667.32,28.86 670.93,30.72 673.99,33.82 676.49,38.15"/>
    </edge>
    <edge id=":J109_0" function="internal">
        <lane id=":J109_0_0" index="0" speed="13.89" length="21.40" shape="796.24,273.11 779.19,286.13"/>
        <lane id=":J109_0_1" index="1" speed="13.89" length="21.40" shape="794.28,270.58 777.28,283.57"/>
        <lane id=":J109_0_2" index="2" speed="13.89" length="21.40" shape="792.32,268.05 775.36,281.00"/>
    </edge>
    <edge id=":J109_3" function="internal">
        <lane id=":J109_3_0" index="0" speed="9.55" length="4.45" shape="792.32,268.05 788.40,270.15"/>
    </edge>
    <edge id=":J109_11" function="internal">
        <lane id=":J109_11_0" index="0" speed="9.55" length="19.93" shape="788.40,270.15 786.71,271.06 781.68,270.93 777.24,267.67 773.37,261.28"/>
    </edge>
    <edge id=":J109_4" function="internal">
        <lane id=":J109_4_0" index="0" speed="6.06" length="9.07" shape="779.20,258.65 780.58,260.83 782.25,261.86 784.21,261.73 786.45,260.46"/>
    </edge>
    <edge id=":J109_5" function="internal">
        <lane id=":J109_5_0" index="0" speed="11.47" length="25.21" shape="776.29,259.97 779.42,268.27 780.63,274.97 779.92,280.07 777.28,283.57"/>
        <lane id=":J109_5_1" index="1" speed="10.91" length="22.74" shape="776.29,259.97 778.80,266.99 779.48,272.84 778.33,277.51 775.36,281.00"/>
    </edge>
    <edge id=":J109_7" function="internal">
        <lane id=":J109_7_0" index="0" speed="7.95" length="11.65" shape="769.62,273.31 771.25,271.45 771.94,269.05 771.67,266.10 770.45,262.59"/>
    </edge>
    <edge id=":J109_8" function="internal">
        <lane id=":J109_8_0" index="0" speed="13.89" length="21.23" shape="769.62,273.31 786.45,260.46"/>
        <lane id=":J109_8_1" index="1" speed="13.89" length="21.23" shape="771.53,275.87 788.41,262.99"/>
        <lane id=":J109_8_2" index="2" speed="13.89" length="21.23" shape="773.45,278.44 790.36,265.52"/>
    </edge>
    <edge id=":J13_0" function="internal">
        <lane id=":J13_0_0" index="0" speed="7.17" length="10.53" shape="598.88,366.70 597.83,364.28 596.11,362.72 593.72,362.01 590.66,362.16"/>
    </edge>
    <edge id=":J13_1" function="internal">
        <lane id=":J13_1_0" index="0" speed="13.89" length="27.61" shape="598.88,366.70 592.28,339.87"/>
        <lane id=":J13_1_1" index="1" speed="13.89" length="27.61" shape="601.99,365.93 595.39,339.12"/>
        <lane id=":J13_1_2" index="2" speed="13.89" length="27.61" shape="605.09,365.15 598.49,338.36"/>
    </edge>
    <edge id=":J13_4" function="internal">
        <lane id=":J13_4_0" index="0" speed="10.54" length="4.94" shape="605.09,365.15 604.61,360.23"/>
    </edge>
    <edge id=":J13_20" function="internal">
        <lane id=":J13_20_0" index="0" speed="10.54" length="19.79" shape="604.61,360.23 604.45,358.59 606.13,353.29 610.13,349.25 616.44,346.48"/>
    </edge>
    <edge id=":J13_5" function="internal">
        <lane id=":J13_5_0" index="0" speed="6.78" length="9.63" shape="619.09,355.71 616.53,356.80 614.90,358.35 614.19,360.36 614.40,362.82"/>
    </edge>
    <edge id=":J13_6" function="internal">
        <lane id=":J13_6_0" index="0" speed="13.89" length="28.82" shape="619.09,355.71 610.76,358.07 605.01,359.53 599.19,360.69 590.66,362.16"/>
        <lane id=":J13_6_1" index="1" speed="13.89" length="28.82" shape="618.21,352.63 609.98,354.96 604.30,356.40 598.55,357.55 590.12,359.00"/>
        <lane id=":J13_6_2" index="2" speed="13.89" length="28.82" shape="617.32,349.56 609.20,351.86 603.59,353.28 597.92,354.41 589.59,355.85"/>
    </edge>
    <edge id=":J13_9" function="internal">
        <lane id=":J13_9_0" index="0" speed="10.35" length="5.01" shape="617.32,349.56 612.36,350.23"/>
    </edge>
    <edge id=":J13_21" function="internal">
        <lane id=":J13_21_0" index="0" speed="10.35" length="20.21" shape="612.36,350.23 610.50,350.48 605.08,348.92 601.08,344.88 598.49,338.36"/>
    </edge>
    <edge id=":J13_10" function="internal">
        <lane id=":J13_10_0" index="0" speed="6.49" length="9.27" shape="607.82,336.10 608.78,338.54 610.24,340.05 612.21,340.65 614.68,340.33"/>
    </edge>
    <edge id=":J13_11" function="internal">
        <lane id=":J13_11_0" index="0" speed="13.89" length="27.54" shape="607.82,336.10 614.40,362.82"/>
        <lane id=":J13_11_1" index="1" speed="13.89" length="27.54" shape="604.71,336.85 611.30,363.60"/>
        <lane id=":J13_11_2" index="2" speed="13.89" length="27.54" shape="601.60,337.61 608.20,364.37"/>
    </edge>
    <edge id=":J13_14" function="internal">
        <lane id=":J13_14_0" index="0" speed="10.27" length="4.86" shape="601.60,337.61 602.07,342.45"/>
    </edge>
    <edge id=":J13_22" function="internal">
        <lane id=":J13_22_0" index="0" speed="10.27" length="20.46" shape="602.07,342.45 602.27,344.58 600.49,349.95 596.26,353.70 589.59,355.85"/>
    </edge>
    <edge id=":J13_15" function="internal">
        <lane id=":J13_15_0" index="0" speed="6.36" length="9.04" shape="587.99,346.38 590.37,345.61 591.88,344.28 592.51,342.36 592.28,339.87"/>
    </edge>
    <edge id=":J13_16" function="internal">
        <lane id=":J13_16_0" index="0" speed="13.89" length="27.75" shape="587.99,346.38 596.00,345.00 601.46,343.91 606.85,342.54 614.68,340.33"/>
        <lane id=":J13_16_1" index="1" speed="13.89" length="27.75" shape="588.52,349.53 596.64,348.14 602.17,347.03 607.64,345.65 615.56,343.40"/>
        <lane id=":J13_16_2" index="2" speed="13.89" length="27.75" shape="589.06,352.69 597.28,351.27 602.88,350.16 608.42,348.75 616.44,346.48"/>
    </edge>
    <edge id=":J13_19" function="internal">
        <lane id=":J13_19_0" index="0" speed="10.80" length="5.31" shape="589.06,352.69 594.36,352.50"/>
    </edge>
    <edge id=":J13_23" function="internal">
        <lane id=":J13_23_0" index="0" speed="10.80" length="19.84" shape="594.36,352.50 596.09,352.43 601.62,354.29 605.66,358.27 608.20,364.37"/>
    </edge>
    <edge id=":J14_0" function="internal">
        <lane id=":J14_0_0" index="0" speed="13.89" length="2.89" shape="527.90,96.01 527.58,95.02 527.38,94.32 527.26,93.62 527.12,92.58"/>
        <lane id=":J14_0_1" index="1" speed="13.89" length="2.89" shape="530.94,94.99 530.67,94.18 530.51,93.61 530.41,93.03 530.30,92.18"/>
        <lane id=":J14_0_2" index="2" speed="13.89" length="2.89" shape="533.97,93.98 533.76,93.34 533.64,92.90 533.56,92.45 533.47,91.79"/>
    </edge>
    <edge id=":J14_3" function="internal">
        <lane id=":J14_3_0" index="0" speed="13.89" length="0.96" shape="543.00,90.61 543.01,90.70 543.02,90.76 543.04,90.83 543.07,90.92"/>
        <lane id=":J14_3_1" index="1" speed="13.89" length="0.96" shape="539.82,91.00 539.86,91.28 539.90,91.48 539.95,91.67 540.04,91.94"/>
        <lane id=":J14_3_2" index="2" speed="13.89" length="0.96" shape="536.65,91.39 536.71,91.87 536.77,92.19 536.86,92.50 537.00,92.96"/>
    </edge>
    <edge id=":J15_0" function="internal">
        <lane id=":J15_0_0" index="0" speed="13.89" length="26.02" shape="521.25,45.26 520.41,37.28 520.38,31.75 521.24,26.27 523.02,18.43"/>
        <lane id=":J15_0_1" index="1" speed="13.89" length="26.02" shape="524.43,44.86 523.62,37.22 523.60,31.92 524.42,26.66 526.14,19.15"/>
        <lane id=":J15_0_2" index="2" speed="13.89" length="26.02" shape="527.60,44.47 526.83,37.15 526.82,32.08 527.61,27.06 529.25,19.87"/>
    </edge>
    <edge id=":J15_3" function="internal">
        <lane id=":J15_3_0" index="0" speed="9.99" length="24.07" shape="527.60,44.47 528.00,38.83 530.78,34.69 535.94,32.04 543.48,30.89"/>
    </edge>
    <edge id=":J15_4" function="internal">
        <lane id=":J15_4_0" index="0" speed="6.75" length="10.36" shape="543.78,37.26 540.60,37.76 538.44,38.94 537.28,40.78 537.13,43.29"/>
    </edge>
    <edge id=":J15_5" function="internal">
        <lane id=":J15_5_0" index="0" speed="10.14" length="28.33" shape="543.63,34.06 535.11,33.74 529.02,31.50 525.87,26.81 526.14,19.15"/>
        <lane id=":J15_5_1" index="1" speed="9.51" length="24.77" shape="543.63,34.06 536.04,33.49 531.11,30.94 528.85,26.39 529.25,19.87"/>
    </edge>
    <edge id=":J15_7" function="internal">
        <lane id=":J15_7_0" index="0" speed="6.00" length="9.08" shape="538.61,22.02 538.39,24.61 539.11,26.42 540.75,27.44 543.34,27.69"/>
    </edge>
    <edge id=":J15_8" function="internal">
        <lane id=":J15_8_0" index="0" speed="13.89" length="22.64" shape="538.61,22.02 537.18,28.24 536.48,32.58 536.47,36.96 537.13,43.29"/>
        <lane id=":J15_8_1" index="1" speed="13.89" length="22.64" shape="535.49,21.30 533.99,27.85 533.26,32.42 533.26,37.03 533.96,43.68"/>
        <lane id=":J15_8_2" index="2" speed="13.89" length="22.64" shape="532.37,20.58 530.80,27.45 530.04,32.25 530.05,37.09 530.78,44.08"/>
    </edge>
    <edge id=":J16_0" function="internal">
        <lane id=":J16_0_0" index="0" speed="13.89" length="2.95" shape="553.63,-41.88 553.42,-41.68 553.30,-41.52 553.22,-41.34 553.15,-41.06"/>
        <lane id=":J16_0_1" index="1" speed="7.16" length="2.95" shape="551.49,-44.26 550.85,-43.66 550.48,-43.18 550.24,-42.62 550.03,-41.78"/>
        <lane id=":J16_0_2" index="2" speed="9.09" length="2.95" shape="549.34,-46.63 548.29,-45.63 547.66,-44.83 547.27,-43.90 546.91,-42.49"/>
    </edge>
    <edge id=":J16_3" function="internal">
        <lane id=":J16_3_0" index="0" speed="13.28" length="8.86" shape="537.56,-44.65 538.34,-47.74 539.20,-49.80 540.58,-51.55 542.89,-53.74"/>
        <lane id=":J16_3_1" index="1" speed="12.05" length="8.86" shape="540.68,-43.93 541.32,-46.46 542.02,-48.14 543.15,-49.58 545.04,-51.37"/>
        <lane id=":J16_3_2" index="2" speed="10.67" length="8.86" shape="543.79,-43.21 544.29,-45.18 544.84,-46.49 545.72,-47.60 547.19,-49.00"/>
    </edge>
    <edge id=":J17_0" function="internal">
        <lane id=":J17_0_0" index="0" speed="6.16" length="9.05" shape="705.08,-171.19 703.43,-173.13 701.63,-173.95 699.67,-173.65 697.56,-172.23"/>
    </edge>
    <edge id=":J17_1" function="internal">
        <lane id=":J17_1_0" index="0" speed="13.89" length="30.83" shape="705.08,-171.19 688.22,-196.74"/>
        <lane id=":J17_1_1" index="1" speed="13.89" length="30.83" shape="707.79,-172.89 690.85,-198.56"/>
        <lane id=":J17_1_2" index="2" speed="13.89" length="30.83" shape="710.50,-174.59 693.48,-200.39"/>
        <lane id=":J17_1_3" index="3" speed="13.89" length="30.83" shape="713.21,-176.29 696.11,-202.21"/>
    </edge>
    <edge id=":J17_5" function="internal">
        <lane id=":J17_5_0" index="0" speed="12.34" length="4.10" shape="713.21,-176.29 711.58,-180.06"/>
    </edge>
    <edge id=":J17_22" function="internal">
        <lane id=":J17_22_0" index="0" speed="12.34" length="26.79" shape="711.58,-180.06 710.08,-183.53 709.91,-190.52 712.72,-197.27 718.50,-203.78"/>
    </edge>
    <edge id=":J17_6" function="internal">
        <lane id=":J17_6_0" index="0" speed="8.69" length="14.87" shape="724.84,-196.56 722.55,-193.76 721.66,-190.58 722.16,-187.03 724.05,-183.09"/>
    </edge>
    <edge id=":J17_7" function="internal">
        <lane id=":J17_7_0" index="0" speed="13.89" length="36.61" shape="724.84,-196.56 697.56,-172.23"/>
        <lane id=":J17_7_1" index="1" speed="13.89" length="36.61" shape="722.72,-198.97 695.41,-174.60"/>
        <lane id=":J17_7_2" index="2" speed="13.89" length="36.61" shape="720.61,-201.37 693.26,-176.97"/>
    </edge>
    <edge id=":J17_10" function="internal">
        <lane id=":J17_10_0" index="0" speed="10.74" length="5.45" shape="720.61,-201.37 716.11,-198.30"/>
    </edge>
    <edge id=":J17_23" function="internal">
        <lane id=":J17_23_0" index="0" speed="10.74" length="23.23" shape="716.11,-198.30 713.51,-196.53 707.06,-195.06 701.26,-196.95 696.11,-202.21"/>
    </edge>
    <edge id=":J17_11" function="internal">
        <lane id=":J17_11_0" index="0" speed="6.27" length="9.04" shape="706.62,-209.52 708.34,-207.68 710.19,-206.91 712.17,-207.21 714.28,-208.59"/>
    </edge>
    <edge id=":J17_12" function="internal">
        <lane id=":J17_12_0" index="0" speed="13.89" length="31.43" shape="706.62,-209.52 724.05,-183.09"/>
        <lane id=":J17_12_1" index="1" speed="13.89" length="31.43" shape="703.99,-207.69 721.34,-181.39"/>
        <lane id=":J17_12_2" index="2" speed="13.89" length="31.43" shape="701.36,-205.87 718.63,-179.69"/>
        <lane id=":J17_12_3" index="3" speed="13.89" length="31.43" shape="698.74,-204.04 715.92,-177.99"/>
    </edge>
    <edge id=":J17_16" function="internal">
        <lane id=":J17_16_0" index="0" speed="12.13" length="4.97" shape="698.74,-204.04 700.85,-199.54"/>
    </edge>
    <edge id=":J17_24" function="internal">
        <lane id=":J17_24_0" index="0" speed="12.13" length="25.64" shape="700.85,-199.54 701.93,-197.26 702.08,-190.49 699.19,-183.72 693.26,-176.97"/>
    </edge>
    <edge id=":J17_17" function="internal">
        <lane id=":J17_17_0" index="0" speed="8.38" length="14.14" shape="686.82,-184.09 689.25,-187.00 690.30,-190.08 689.96,-193.33 688.22,-196.74"/>
    </edge>
    <edge id=":J17_18" function="internal">
        <lane id=":J17_18_0" index="0" speed="13.89" length="36.75" shape="686.82,-184.09 714.28,-208.59"/>
        <lane id=":J17_18_1" index="1" speed="13.89" length="36.75" shape="688.97,-181.71 716.39,-206.18"/>
        <lane id=":J17_18_2" index="2" speed="13.89" length="36.75" shape="691.11,-179.34 718.50,-203.78"/>
    </edge>
    <edge id=":J17_21" function="internal">
        <lane id=":J17_21_0" index="0" speed="10.78" length="8.04" shape="691.11,-179.34 697.56,-184.15"/>
    </edge>
    <edge id=":J17_25" function="internal">
        <lane id=":J17_25_0" index="0" speed="10.78" length="22.13" shape="697.56,-184.15 698.27,-184.68 704.60,-186.52 710.39,-184.44 715.92,-177.99"/>
    </edge>
    <edge id=":J18_0" function="internal">
        <lane id=":J18_0_0" index="0" speed="6.16" length="9.05" shape="513.31,-433.15 511.37,-434.80 509.46,-435.32 507.57,-434.71 505.72,-432.97"/>
    </edge>
    <edge id=":J18_1" function="internal">
        <lane id=":J18_1_0" index="0" speed="13.89" length="36.84" shape="513.31,-433.15 488.43,-459.97"/>
        <lane id=":J18_1_1" index="1" speed="13.89" length="36.84" shape="515.71,-435.26 490.72,-462.21"/>
        <lane id=":J18_1_2" index="2" speed="13.89" length="36.84" shape="518.11,-437.38 493.00,-464.45"/>
        <lane id=":J18_1_3" index="3" speed="13.89" length="36.84" shape="520.51,-439.50 495.29,-466.69"/>
    </edge>
    <edge id=":J18_5" function="internal">
        <lane id=":J18_5_0" index="0" speed="12.70" length="4.60" shape="520.51,-439.50 517.94,-443.31"/>
    </edge>
    <edge id=":J18_25" function="internal">
        <lane id=":J18_25_0" index="0" speed="12.70" length="28.83" shape="517.94,-443.31 515.33,-447.19 513.42,-454.78 514.81,-462.26 519.47,-469.63"/>
    </edge>
    <edge id=":J18_6" function="internal">
        <lane id=":J18_6_0" index="0" speed="8.59" length="14.79" shape="529.17,-461.28 527.23,-458.12 526.74,-454.85 527.70,-451.46 530.11,-447.96"/>
    </edge>
    <edge id=":J18_7" function="internal">
        <lane id=":J18_7_0" index="0" speed="13.89" length="36.94" shape="529.17,-461.28 505.72,-432.97"/>
        <lane id=":J18_7_1" index="1" speed="13.89" length="36.94" shape="526.74,-463.37 503.22,-434.96"/>
        <lane id=":J18_7_2" index="2" speed="13.89" length="36.94" shape="524.32,-465.45 500.71,-436.96"/>
        <lane id=":J18_7_3" index="3" speed="13.89" length="36.94" shape="521.90,-467.54 498.21,-438.96"/>
    </edge>
    <edge id=":J18_11" function="internal">
        <lane id=":J18_11_0" index="0" speed="11.25" length="4.40" shape="521.90,-467.54 518.58,-464.65"/>
    </edge>
    <edge id=":J18_12" function="internal">
        <lane id=":J18_12_0" index="0" speed="3.65" length="1.44" shape="521.90,-467.54 520.51,-467.16"/>
    </edge>
    <edge id=":J18_26" function="internal">
        <lane id=":J18_26_0" index="0" speed="11.25" length="26.58" shape="518.58,-464.65 515.42,-461.90 508.82,-459.88 502.11,-461.47 495.29,-466.69"/>
    </edge>
    <edge id=":J18_27" function="internal">
        <lane id=":J18_27_0" index="0" speed="3.65" length="3.23" shape="520.51,-467.16 519.64,-467.37 519.29,-468.20 519.47,-469.63"/>
    </edge>
    <edge id=":J18_13" function="internal">
        <lane id=":J18_13_0" index="0" speed="6.33" length="9.04" shape="504.43,-475.65 506.42,-474.13 508.38,-473.66 510.31,-474.25 512.20,-475.90"/>
    </edge>
    <edge id=":J18_14" function="internal">
        <lane id=":J18_14_0" index="0" speed="13.89" length="37.51" shape="504.43,-475.65 530.11,-447.96"/>
        <lane id=":J18_14_1" index="1" speed="13.89" length="37.51" shape="502.15,-473.41 527.71,-445.84"/>
        <lane id=":J18_14_2" index="2" speed="13.89" length="37.51" shape="499.86,-471.17 525.31,-443.73"/>
        <lane id=":J18_14_3" index="3" speed="13.89" length="37.51" shape="497.57,-468.93 522.91,-441.61"/>
    </edge>
    <edge id=":J18_18" function="internal">
        <lane id=":J18_18_0" index="0" speed="12.60" length="5.88" shape="497.57,-468.93 501.02,-464.17"/>
    </edge>
    <edge id=":J18_28" function="internal">
        <lane id=":J18_28_0" index="0" speed="12.60" length="27.46" shape="501.02,-464.17 502.69,-461.87 504.50,-454.53 503.01,-446.89 498.21,-438.96"/>
    </edge>
    <edge id=":J18_19" function="internal">
        <lane id=":J18_19_0" index="0" speed="8.45" length="14.47" shape="488.21,-446.94 490.41,-450.50 491.18,-453.85 490.52,-457.01 488.43,-459.97"/>
    </edge>
    <edge id=":J18_20" function="internal">
        <lane id=":J18_20_0" index="0" speed="13.89" length="37.42" shape="488.21,-446.94 512.20,-475.90"/>
        <lane id=":J18_20_1" index="1" speed="13.89" length="37.42" shape="490.71,-444.95 514.62,-473.81"/>
        <lane id=":J18_20_2" index="2" speed="13.89" length="37.42" shape="493.21,-442.95 517.05,-471.72"/>
        <lane id=":J18_20_3" index="3" speed="13.89" length="37.42" shape="495.71,-440.95 519.47,-469.63"/>
    </edge>
    <edge id=":J18_24" function="internal">
        <lane id=":J18_24_0" index="0" speed="11.26" length="6.77" shape="495.71,-440.95 500.55,-445.69"/>
    </edge>
    <edge id=":J18_29" function="internal">
        <lane id=":J18_29_0" index="0" speed="11.26" length="26.26" shape="500.55,-445.69 502.54,-447.63 509.10,-449.96 515.77,-447.95 522.91,-441.61"/>
    </edge>
    <edge id=":J20_0" function="internal">
        <lane id=":J20_0_0" index="0" speed="5.83" length="9.13" shape="894.42,204.57 893.36,202.12 891.88,200.93 889.98,201.00 887.67,202.33"/>
    </edge>
    <edge id=":J20_1" function="internal">
        <lane id=":J20_1_0" index="0" speed="13.89" length="31.41" shape="894.42,204.57 891.99,195.76 890.22,189.75 888.09,183.87 884.62,175.42"/>
        <lane id=":J20_1_1" index="1" speed="13.89" length="31.41" shape="897.50,203.71 895.04,194.78 893.24,188.70 891.09,182.74 887.57,174.18"/>
        <lane id=":J20_1_2" index="2" speed="13.89" length="31.41" shape="900.58,202.86 898.10,193.81 896.27,187.64 894.08,181.60 890.51,172.93"/>
        <lane id=":J20_1_3" index="3" speed="13.89" length="31.41" shape="903.67,202.00 901.15,192.84 899.29,186.59 897.08,180.47 893.46,171.69"/>
    </edge>
    <edge id=":J20_5" function="internal">
        <lane id=":J20_5_0" index="0" speed="12.00" length="5.18" shape="903.67,202.00 902.88,196.88"/>
    </edge>
    <edge id=":J20_22" function="internal">
        <lane id=":J20_22_0" index="0" speed="12.00" length="26.59" shape="902.88,196.88 902.25,192.76 903.63,185.35 907.81,179.77 914.78,176.02"/>
    </edge>
    <edge id=":J20_6" function="internal">
        <lane id=":J20_6_0" index="0" speed="8.34" length="14.85" shape="917.86,185.11 915.78,186.62 914.76,189.37 914.80,193.37 915.89,198.61"/>
    </edge>
    <edge id=":J20_7" function="internal">
        <lane id=":J20_7_0" index="0" speed="13.89" length="36.04" shape="917.86,185.11 908.82,188.54 901.88,192.08 895.39,196.44 887.67,202.33"/>
        <lane id=":J20_7_1" index="1" speed="13.89" length="36.04" shape="916.83,182.08 907.64,185.59 900.39,189.30 893.58,193.83 885.71,199.80"/>
        <lane id=":J20_7_2" index="2" speed="13.89" length="36.04" shape="915.81,179.05 906.47,182.64 898.90,186.52 891.76,191.22 883.75,197.27"/>
    </edge>
    <edge id=":J20_10" function="internal">
        <lane id=":J20_10_0" index="0" speed="11.03" length="4.60" shape="915.81,179.05 911.31,180.03"/>
    </edge>
    <edge id=":J20_23" function="internal">
        <lane id=":J20_23_0" index="0" speed="11.03" length="21.73" shape="911.31,180.03 908.10,180.73 901.80,180.06 896.93,177.05 893.46,171.69"/>
    </edge>
    <edge id=":J20_11" function="internal">
        <lane id=":J20_11_0" index="0" speed="6.72" length="9.15" shape="905.25,166.71 906.52,168.81 908.19,170.05 910.26,170.43 912.73,169.96"/>
    </edge>
    <edge id=":J20_12" function="internal">
        <lane id=":J20_12_0" index="0" speed="13.89" length="33.05" shape="905.25,166.71 909.04,175.95 911.34,182.39 913.25,188.97 915.89,198.61"/>
        <lane id=":J20_12_1" index="1" speed="13.89" length="33.05" shape="902.31,167.96 906.05,177.08 908.31,183.45 910.20,189.94 912.81,199.46"/>
        <lane id=":J20_12_2" index="2" speed="13.89" length="33.05" shape="899.36,169.20 903.05,178.21 905.29,184.50 907.15,190.91 909.73,200.32"/>
        <lane id=":J20_12_3" index="3" speed="13.89" length="33.05" shape="896.41,170.44 900.06,179.35 902.26,185.55 904.10,191.89 906.64,201.18"/>
    </edge>
    <edge id=":J20_16" function="internal">
        <lane id=":J20_16_0" index="0" speed="13.10" length="3.58" shape="896.41,170.44 897.08,173.96"/>
    </edge>
    <edge id=":J20_24" function="internal">
        <lane id=":J20_24_0" index="0" speed="13.10" length="28.34" shape="897.08,173.96 897.65,176.93 895.95,183.56 891.32,190.34 883.75,197.27"/>
    </edge>
    <edge id=":J20_17" function="internal">
        <lane id=":J20_17_0" index="0" speed="9.66" length="16.97" shape="877.87,189.68 881.90,185.99 884.37,182.39 885.27,178.86 884.62,175.42"/>
    </edge>
    <edge id=":J20_18" function="internal">
        <lane id=":J20_18_0" index="0" speed="13.89" length="39.20" shape="877.87,189.68 886.32,183.40 894.42,178.18 902.96,173.78 912.73,169.96"/>
        <lane id=":J20_18_1" index="1" speed="13.89" length="39.20" shape="879.83,192.21 888.14,186.01 895.91,180.96 904.13,176.73 913.75,172.99"/>