<?xml version="1.0" encoding="UTF-8"?>

<!-- generated on 2026-05-12T00:08:51.391470+07:00 by Eclipse SUMO netedit 1.26.0
<neteditConfiguration xmlns:xsi="http://www.w3.org/2001/XMLSchema-instance" xsi:noNamespaceSchemaLocation="http://sumo.dlr.de/xsd/neteditConfiguration.xsd">

    <input>
        <sumo-net-file value="map.net.xml"/>
    </input>

    <output>
        <output-file value="map.net.xml"/>
    </output>

    <processing>
        <geometry.min-radius.fix.railways value="false"/>
        <geometry.avoid-overlap value="false"/>
        <geometry.max-grade.fix value="false"/>
        <offset.disable-normalization value="true"/>
        <lefthand value="0"/>
    </processing>

    <junctions>
        <no-turnarounds value="true"/>
        <junctions.corner-detail value="5"/>
        <junctions.limit-turn-speed value="5.50"/>
        <rectangular-lane-cut value="0"/>
    </junctions>

    <pedestrian>
        <walkingareas value="0"/>
    </pedestrian>

</neteditConfiguration>
-->

<net version="1.20" junctionCornerDetail="5" limitTurnSpeed="5.50" avoidOverlap="0" xmlns:xsi="http://www.w3.org/2001/XMLSchema-instance" xsi:noNamespaceSchemaLocation="http://sumo.dlr.de/xsd/net_file.xsd">

    <location netOffset="-580968.42,-2325606.59" convBoundary="1060.17,669.34,1347.80,913.62" origBoundary="105.735219,21.024929,105.804528,21.052611" projParameter="+proj=utm +zone=48 +ellps=WGS84 +datum=WGS84 +units=m +no_defs"/>

    <type id="highway.primary" priority="12" numLanes="2" speed="27.78" disallow="tram rail_urban rail rail_electric rail_fast ship container cable_car subway aircraft wheelchair scooter drone" oneway="0"/>
    <type id="highway.secondary" priority="11" numLanes="1" speed="27.78" disallow="tram rail_urban rail rail_electric rail_fast ship container cable_car subway aircraft wheelchair scooter drone" oneway="0"/>

    <edge id=":10259539417_0" function="internal">
        <lane id=":10259539417_0_0" index="0" disallow="tram rail_urban rail rail_electric rail_fast ship container cable_car subway aircraft wheelchair scooter drone" speed="27.78" length="8.21" shape="1082.39,783.54 1080.00,783.83 1078.41,784.41 1076.82,785.00 1074.43,785.31"/>
        <lane id=":10259539417_0_1" index="1" disallow="tram rail_urban rail rail_electric rail_fast ship container cable_car subway aircraft wheelchair scooter drone" speed="27.78" length="8.21" shape="1082.33,780.34 1079.93,780.63 1078.34,781.21 1076.75,781.80 1074.35,782.11"/>
    </edge>
    <edge id=":10304029962_0" function="internal">
        <lane id=":10304029962_0_0" index="0" disallow="tram rail_urban rail rail_electric rail_fast ship container cable_car subway aircraft wheelchair scooter drone" speed="9.06" length="13.45" shape="1308.58,803.44 1313.00,805.36 1316.59,806.32 1319.35,806.33 1321.28,805.38"/>
    </edge>
    <edge id=":10304029962_1" function="internal">
        <lane id=":10304029962_1_0" index="0" disallow="tram rail_urban rail rail_electric rail_fast ship container cable_car subway aircraft wheelchair scooter drone" speed="24.16" length="17.35" shape="1308.58,803.44 1313.38,805.79 1316.60,807.64 1319.37,810.05 1322.83,814.08"/>
        <lane id=":10304029962_1_1" index="1" disallow="tram rail_urban rail rail_electric rail_fast ship container cable_car subway aircraft wheelchair scooter drone" speed="23.22" length="17.35" shape="1307.16,806.31 1311.60,808.47 1314.58,810.17 1317.14,812.37 1320.34,816.09"/>
    </edge>
    <edge id=":10304029962_3" function="internal">
        <lane id=":10304029962_3_0" index="0" disallow="tram rail_urban rail rail_electric rail_fast ship container cable_car subway aircraft wheelchair scooter drone" speed="7.09" length="15.34" shape="1307.16,806.31 1311.76,809.15 1313.94,811.90 1313.69,814.58 1311.03,817.18"/>
        <lane id=":10304029962_3_1" index="1" disallow="tram rail_urban rail rail_electric rail_fast ship container cable_car subway aircraft wheelchair scooter drone" speed="6.22" length="11.43" shape="1307.16,806.31 1310.41,808.36 1311.84,810.42 1311.46,812.47 1309.26,814.51"/>
        <lane id=":10304029962_3_2" index="2" disallow="tram rail_urban rail rail_electric rail_fast ship container cable_car subway aircraft wheelchair scooter drone" speed="5.21" length="7.58" shape="1307.16,806.31 1309.05,807.58 1309.74,808.93 1309.22,810.35 1307.50,811.84"/>
    </edge>
    <edge id=":10304029983_0" function="internal">
        <lane id=":10304029983_0_0" index="0" disallow="tram rail_urban rail rail_electric rail_fast ship container cable_car subway aircraft wheelchair scooter drone" speed="27.78" length="0.21" shape="1288.49,793.49 1288.58,793.54"/>
        <lane id=":10304029983_0_1" index="1" disallow="tram rail_urban rail rail_electric rail_fast ship container cable_car subway aircraft wheelchair scooter drone" speed="27.78" length="0.21" shape="1286.89,796.26 1287.16,796.41"/>
    </edge>
    <edge id=":1312645216_0" function="internal">
        <lane id=":1312645216_0_0" index="0" disallow="tram rail_urban rail rail_electric rail_fast ship container cable_car subway aircraft wheelchair scooter drone" speed="20.84" length="14.10" shape="1251.26,859.55 1247.43,859.70 1244.59,858.54 1241.89,857.68 1238.49,858.76"/>
        <lane id=":1312645216_0_1" index="1" disallow="tram rail_urban rail rail_electric rail_fast ship container cable_car subway aircraft wheelchair scooter drone" speed="20.84" length="14.10" shape="1250.36,856.48 1246.29,856.70 1243.27,855.61 1240.39,854.85 1236.76,856.06"/>
        <lane id=":1312645216_0_2" index="2" disallow="tram rail_urban rail rail_electric rail_fast ship container cable_car subway aircraft wheelchair scooter drone" speed="20.84" length="14.10" shape="1249.47,853.40 1245.15,853.71 1241.94,852.69 1238.89,852.02 1235.04,853.37"/>
    </edge>
    <edge id=":1312645216_3" function="internal">
        <lane id=":1312645216_3_0" index="0" disallow="tram rail_urban rail rail_electric rail_fast ship container cable_car subway aircraft wheelchair scooter drone" speed="18.14" length="11.79" shape="1247.16,849.90 1245.22,853.07 1243.61,855.09 1241.61,856.72 1238.49,858.76"/>
        <lane id=":1312645216_3_1" index="1" disallow="tram rail_urban rail rail_electric rail_fast ship container cable_car subway aircraft wheelchair scooter drone" speed="17.55" length="11.79" shape="1244.76,847.67 1242.96,850.65 1241.50,852.57 1239.66,854.14 1236.76,856.06"/>
        <lane id=":1312645216_3_2" index="2" disallow="tram rail_urban rail rail_electric rail_fast ship container cable_car subway aircraft wheelchair scooter drone" speed="16.93" length="11.79" shape="1242.35,845.43 1240.71,848.23 1239.39,850.06 1237.72,851.56 1235.04,853.37"/>
    </edge>
    <edge id=":1312645220_0" function="internal">
        <lane id=":1312645220_0_0" index="0" disallow="tram rail_urban rail rail_electric rail_fast ship container cable_car subway aircraft wheelchair scooter drone" speed="27.78" length="0.63" shape="1227.07,798.29 1227.37,798.35 1227.58,798.40 1227.78,798.46 1228.08,798.56"/>
        <lane id=":1312645220_0_1" index="1" disallow="tram rail_urban rail rail_electric rail_fast ship container cable_car subway aircraft wheelchair scooter drone" speed="27.78" length="0.63" shape="1226.44,801.43 1226.62,801.47 1226.75,801.49 1226.87,801.53 1227.05,801.59"/>
        <lane id=":1312645220_0_2" index="2" disallow="tram rail_urban rail rail_electric rail_fast ship container cable_car subway aircraft wheelchair scooter drone" speed="27.78" length="0.63" shape="1225.82,804.57 1225.88,804.58 1225.92,804.59 1225.96,804.60 1226.02,804.62"/>
    </edge>
    <edge id=":1312645225_0" function="internal">
        <lane id=":1312645225_0_0" index="0" disallow="tram rail_urban rail rail_electric rail_fast ship container cable_car subway aircraft wheelchair scooter drone" speed="8.04" length="7.68" shape="1206.62,863.06 1205.01,862.87 1203.30,863.19 1201.49,864.02 1199.59,865.36"/>
        <lane id=":1312645225_0_1" index="1" disallow="tram rail_urban rail rail_electric rail_fast ship container cable_car subway aircraft wheelchair scooter drone" speed="8.80" length="9.32" shape="1206.62,863.06 1203.47,862.32 1200.91,862.04 1198.94,862.23 1197.56,862.88"/>
    </edge>
    <edge id=":1312645225_2" function="internal">
        <lane id=":1312645225_2_0" index="0" disallow="tram rail_urban rail rail_electric rail_fast ship container cable_car subway aircraft wheelchair scooter drone" speed="23.72" length="9.51" shape="1206.62,863.06 1203.64,862.07 1201.72,861.07 1199.96,859.75 1197.46,857.78"/>
        <lane id=":1312645225_2_1" index="1" disallow="tram rail_urban rail rail_electric rail_fast ship container cable_car subway aircraft wheelchair scooter drone" speed="22.39" length="9.51" shape="1207.50,859.99 1204.85,859.10 1203.15,858.18 1201.60,856.98 1199.38,855.23"/>
        <lane id=":1312645225_2_2" index="2" disallow="tram rail_urban rail rail_electric rail_fast ship container cable_car subway aircraft wheelchair scooter drone" speed="20.97" length="9.51" shape="1208.37,856.91 1206.06,856.12 1204.59,855.29 1203.24,854.22 1201.30,852.67"/>
    </edge>
    <edge id=":1312645241_0" function="internal">
        <lane id=":1312645241_0_0" index="0" disallow="tram rail_urban rail rail_electric rail_fast ship container cable_car subway aircraft wheelchair scooter drone" speed="8.92" length="9.77" shape="1248.70,815.15 1249.72,816.40 1251.50,817.46 1254.05,818.33 1257.37,819.00"/>
        <lane id=":1312645241_0_1" index="1" disallow="tram rail_urban rail rail_electric rail_fast ship container cable_car subway aircraft wheelchair scooter drone" speed="9.52" length="11.22" shape="1248.70,815.15 1250.30,817.91 1252.20,820.00 1254.39,821.42 1256.88,822.16"/>
        <lane id=":1312645241_0_2" index="2" disallow="tram rail_urban rail rail_electric rail_fast ship container cable_car subway aircraft wheelchair scooter drone" speed="10.23" length="13.04" shape="1248.70,815.15 1250.89,819.42 1252.89,822.54 1254.72,824.51 1256.38,825.33"/>
    </edge>
    <edge id=":1312645241_3" function="internal">
        <lane id=":1312645241_3_0" index="0" disallow="tram rail_urban rail rail_electric rail_fast ship container cable_car subway aircraft wheelchair scooter drone" speed="21.28" length="13.96" shape="1248.70,815.15 1250.63,819.06 1251.86,821.83 1252.52,824.73 1252.71,829.03"/>
        <lane id=":1312645241_3_1" index="1" disallow="tram rail_urban rail rail_electric rail_fast ship container cable_car subway aircraft wheelchair scooter drone" speed="20.76" length="13.96" shape="1245.80,816.51 1247.62,820.23 1248.76,822.88 1249.35,825.65 1249.51,829.74"/>
        <lane id=":1312645241_3_2" index="2" disallow="tram rail_urban rail rail_electric rail_fast ship container cable_car subway aircraft wheelchair scooter drone" speed="20.23" length="13.96" shape="1242.91,817.87 1244.61,821.41 1245.65,823.93 1246.17,826.57 1246.30,830.46"/>
    </edge>
    <edge id=":13388817944_0" function="internal">
        <lane id=":13388817944_0_0" index="0" disallow="tram rail_urban rail rail_electric rail_fast ship container cable_car subway aircraft wheelchair scooter drone" speed="27.78" length="0.41" shape="1253.90,773.47 1253.95,773.51 1253.98,773.53 1254.02,773.56 1254.07,773.59"/>
        <lane id=":13388817944_0_1" index="1" disallow="tram rail_urban rail rail_electric rail_fast ship container cable_car subway aircraft wheelchair scooter drone" speed="27.78" length="0.41" shape="1251.96,776.02 1252.10,776.13 1252.20,776.20 1252.31,776.27 1252.47,776.36"/>
    </edge>
    <edge id=":1498129113_0" function="internal">
        <lane id=":1498129113_0_0" index="0" disallow="tram rail_urban rail rail_electric rail_fast ship container cable_car subway aircraft wheelchair scooter drone" speed="5.96" length="9.09" shape="1336.41,819.85 1334.48,821.62 1333.80,823.43 1334.35,825.28 1336.15,827.18"/>
        <lane id=":1498129113_0_1" index="1" disallow="tram rail_urban rail rail_electric rail_fast ship container cable_car subway aircraft wheelchair scooter drone" speed="7.57" length="15.47" shape="1334.60,817.21 1331.32,820.22 1330.16,823.30 1331.10,826.45 1334.15,829.68"/>
    </edge>
    <edge id=":1498129113_2" function="internal">
        <lane id=":1498129113_2_0" index="0" disallow="tram rail_urban rail rail_electric rail_fast ship container cable_car subway aircraft wheelchair scooter drone" speed="27.78" length="16.70" shape="1332.79,814.57 1329.36,818.12 1328.21,821.62 1327.15,825.27 1324.04,829.22"/>
        <lane id=":1498129113_2_1" index="1" disallow="tram rail_urban rail rail_electric rail_fast ship container cable_car subway aircraft wheelchair scooter drone" speed="27.78" length="16.70" shape="1332.79,814.57 1329.13,817.68 1327.17,820.42 1325.32,823.29 1321.96,826.79"/>
        <lane id=":1498129113_2_2" index="2" disallow="tram rail_urban rail rail_electric rail_fast ship container cable_car subway aircraft wheelchair scooter drone" speed="27.78" length="16.70" shape="1332.79,814.57 1328.82,817.29 1326.13,819.21 1323.55,821.25 1319.88,824.36"/>
    </edge>
    <edge id=":1498129113_5" function="internal">
        <lane id=":1498129113_5_0" index="0" disallow="tram rail_urban rail rail_electric rail_fast ship container cable_car subway aircraft wheelchair scooter drone" speed="27.78" length="18.67" shape="1323.11,814.42 1326.55,818.61 1329.09,821.33 1331.90,823.79 1336.15,827.18"/>
        <lane id=":1498129113_5_1" index="1" disallow="tram rail_urban rail rail_electric rail_fast ship container cable_car subway aircraft wheelchair scooter drone" speed="27.78" length="18.67" shape="1320.61,816.42 1324.19,820.78 1326.83,823.61 1329.75,826.16 1334.15,829.68"/>
    </edge>
    <edge id=":1498129113_7" function="internal">
        <lane id=":1498129113_7_0" index="0" disallow="tram rail_urban rail rail_electric rail_fast ship container cable_car subway aircraft wheelchair scooter drone" speed="7.39" length="11.67" shape="1320.61,816.42 1322.76,819.63 1323.70,822.42 1323.43,824.81 1321.96,826.79"/>
        <lane id=":1498129113_7_1" index="1" disallow="tram rail_urban rail rail_electric rail_fast ship container cable_car subway aircraft wheelchair scooter drone" speed="6.58" length="9.03" shape="1320.61,816.42 1321.87,818.54 1322.17,820.57 1321.51,822.51 1319.88,824.36"/>
    </edge>
    <edge id=":1695508254_0" function="internal">
        <lane id=":1695508254_0_0" index="0" disallow="tram rail_urban rail rail_electric rail_fast ship container cable_car subway aircraft wheelchair scooter drone" speed="11.41" length="14.94" shape="1171.66,886.26 1168.95,888.66 1166.95,891.60 1165.66,895.07 1165.10,899.09"/>
    </edge>
    <edge id=":1695508254_1" function="internal">
        <lane id=":1695508254_1_0" index="0" disallow="tram rail_urban rail rail_electric rail_fast ship container cable_car subway aircraft wheelchair scooter drone" speed="20.84" length="18.75" shape="1171.66,886.26 1166.97,889.66 1163.72,891.98 1160.23,893.83 1154.84,895.82"/>
        <lane id=":1695508254_1_1" index="1" disallow="tram rail_urban rail rail_electric rail_fast ship container cable_car subway aircraft wheelchair scooter drone" speed="20.84" length="18.75" shape="1169.83,883.63 1165.38,886.87 1162.29,889.10 1158.97,890.88 1153.84,892.77"/>
        <lane id=":1695508254_1_2" index="2" disallow="tram rail_urban rail rail_electric rail_fast ship container cable_car subway aircraft wheelchair scooter drone" speed="20.84" length="18.75" shape="1169.83,883.63 1165.26,886.36 1161.78,887.56 1158.08,888.32 1152.85,889.73"/>
    </edge>
    <edge id=":1695508254_4" function="internal">
        <lane id=":1695508254_4_0" index="0" disallow="tram rail_urban rail rail_electric rail_fast ship container cable_car subway aircraft wheelchair scooter drone" speed="27.78" length="17.59" shape="1165.76,881.43 1165.10,899.09"/>
        <lane id=":1695508254_4_1" index="1" disallow="tram rail_urban rail rail_electric rail_fast ship container cable_car subway aircraft wheelchair scooter drone" speed="27.78" length="17.59" shape="1162.56,881.35 1161.90,898.93"/>
        <lane id=":1695508254_4_2" index="2" disallow="tram rail_urban rail rail_electric rail_fast ship container cable_car subway aircraft wheelchair scooter drone" speed="27.78" length="17.59" shape="1159.36,881.27 1158.70,898.77"/>
    </edge>
    <edge id=":1695508254_7" function="internal">
        <lane id=":1695508254_7_0" index="0" disallow="tram rail_urban rail rail_electric rail_fast ship container cable_car subway aircraft wheelchair scooter drone" speed="9.02" length="13.56" shape="1159.36,881.27 1158.92,885.66 1157.86,889.04 1156.16,891.41 1153.84,892.77"/>
        <lane id=":1695508254_7_1" index="1" disallow="tram rail_urban rail rail_electric rail_fast ship container cable_car subway aircraft wheelchair scooter drone" speed="8.34" length="11.46" shape="1159.36,881.27 1158.89,884.20 1157.65,886.58 1155.64,888.43 1152.85,889.73"/>
    </edge>
    <edge id=":1696156946_0" function="internal">
        <lane id=":1696156946_0_0" index="0" disallow="tram rail_urban rail rail_electric rail_fast ship container cable_car subway aircraft wheelchair scooter drone" speed="27.78" length="14.16" shape="1066.91,791.67 1065.92,787.52 1065.31,784.67 1064.85,781.79 1064.33,777.57"/>
        <lane id=":1696156946_0_1" index="1" disallow="tram rail_urban rail rail_electric rail_fast ship container cable_car subway aircraft wheelchair scooter drone" speed="27.78" length="14.16" shape="1070.02,790.92 1069.05,786.89 1068.46,784.11 1068.02,781.31 1067.51,777.19"/>
    </edge>
    <edge id=":1696156946_2" function="internal">
        <lane id=":1696156946_2_0" index="0" disallow="tram rail_urban rail rail_electric rail_fast ship container cable_car subway aircraft wheelchair scooter drone" speed="8.26" length="14.13" shape="1074.33,785.31 1070.31,784.91 1067.30,783.49 1065.31,781.04 1064.33,777.57"/>
        <lane id=":1696156946_2_1" index="1" disallow="tram rail_urban rail rail_electric rail_fast ship container cable_car subway aircraft wheelchair scooter drone" speed="6.82" length="9.31" shape="1074.25,782.11 1071.53,781.86 1069.49,780.96 1068.16,779.40 1067.51,777.19"/>
    </edge>
    <edge id=":1696156956_0" function="internal">
        <lane id=":1696156956_0_0" index="0" disallow="tram rail_urban rail rail_electric rail_fast ship container cable_car subway aircraft wheelchair scooter drone" speed="8.92" length="12.13" shape="1131.37,719.35 1132.32,723.59 1133.49,726.74 1134.90,728.82 1136.54,729.81"/>
    </edge>
    <edge id=":1696156956_1" function="internal">
        <lane id=":1696156956_1_0" index="0" disallow="tram rail_urban rail rail_electric rail_fast ship container cable_car subway aircraft wheelchair scooter drone" speed="22.23" length="19.02" shape="1128.22,719.90 1128.68,725.49 1128.19,729.38 1127.60,733.27 1127.77,738.91"/>
        <lane id=":1696156956_1_1" index="1" disallow="tram rail_urban rail rail_electric rail_fast ship container cable_car subway aircraft wheelchair scooter drone" speed="22.23" length="19.02" shape="1125.07,720.44 1125.52,725.99 1125.02,729.84 1124.43,733.70 1124.60,739.29"/>
    </edge>
    <edge id=":1696156956_3" function="internal">
        <lane id=":1696156956_3_0" index="0" speed="13.89" length="25.12" shape="1111.81,726.39 1119.24,726.72 1124.32,727.15 1129.33,728.05 1136.54,729.81"/>
        <lane id=":1696156956_3_1" index="1" speed="13.89" length="25.12" shape="1111.81,726.39 1119.09,727.21 1123.92,728.70 1128.68,730.67 1135.75,732.91"/>
        <lane id=":1696156956_3_2" index="2" speed="13.89" length="25.12" shape="1111.81,726.39 1119.00,727.69 1123.52,730.24 1127.98,733.27 1134.95,736.01"/>
    </edge>
    <edge id=":1696156956_6" function="internal">
        <lane id=":1696156956_6_0" index="0" disallow="tram rail_urban rail rail_electric rail_fast ship container cable_car subway aircraft wheelchair scooter drone" speed="10.08" length="20.25" shape="1111.67,729.58 1118.33,730.42 1123.24,732.25 1126.38,735.08 1127.77,738.91"/>
        <lane id=":1696156956_6_1" index="1" disallow="tram rail_urban rail rail_electric rail_fast ship container cable_car subway aircraft wheelchair scooter drone" speed="8.94" length="15.75" shape="1111.52,732.78 1116.98,733.39 1120.98,734.68 1123.51,736.65 1124.60,739.29"/>
    </edge>
    <edge id=":1696156967_0" function="internal">
        <lane id=":1696156967_0_0" index="0" disallow="tram rail_urban rail rail_electric rail_fast ship container cable_car subway aircraft wheelchair scooter drone" speed="27.78" length="18.72" shape="1059.66,737.83 1058.00,732.21 1055.49,728.67 1053.23,725.13 1052.30,719.46"/>
        <lane id=":1696156967_0_1" index="1" disallow="tram rail_urban rail rail_electric rail_fast ship container cable_car subway aircraft wheelchair scooter drone" speed="27.78" length="18.72" shape="1059.66,737.83 1058.53,732.36 1057.12,728.70 1055.94,725.02 1055.50,719.51"/>
        <lane id=":1696156967_0_2" index="2" disallow="tram rail_urban rail rail_electric rail_fast ship container cable_car subway aircraft wheelchair scooter drone" speed="27.78" length="18.72" shape="1059.66,737.83 1059.04,732.43 1058.73,728.72 1058.64,724.99 1058.70,719.56"/>
        <lane id=":1696156967_0_3" index="3" disallow="tram rail_urban rail rail_electric rail_fast ship container cable_car subway aircraft wheelchair scooter drone" speed="27.78" length="18.72" shape="1062.84,737.46 1062.23,732.18 1061.93,728.55 1061.84,724.92 1061.90,719.60"/>
        <lane id=":1696156967_0_4" index="4" disallow="tram rail_urban rail rail_electric rail_fast ship container cable_car subway aircraft wheelchair scooter drone" speed="27.78" length="18.72" shape="1062.84,737.46 1062.73,732.18 1063.53,728.58 1064.54,724.96 1065.10,719.65"/>
        <lane id=":1696156967_0_5" index="5" disallow="tram rail_urban rail rail_electric rail_fast ship container cable_car subway aircraft wheelchair scooter drone" speed="27.78" length="18.72" shape="1062.84,737.46 1063.21,732.10 1065.11,728.60 1067.24,725.09 1068.30,719.69"/>
    </edge>
    <edge id=":1696156967_6" function="internal">
        <lane id=":1696156967_6_0" index="0" disallow="tram rail_urban rail rail_electric rail_fast ship container cable_car subway aircraft wheelchair scooter drone" speed="8.86" length="19.23" shape="1062.84,737.46 1062.99,732.14 1064.87,728.34 1068.49,726.07 1073.84,725.33"/>
        <lane id=":1696156967_6_1" index="1" disallow="tram rail_urban rail rail_electric rail_fast ship container cable_car subway aircraft wheelchair scooter drone" speed="8.24" length="16.50" shape="1062.84,737.46 1063.13,733.54 1065.06,730.74 1068.62,729.07 1073.83,728.53"/>
        <lane id=":1696156967_6_2" index="2" disallow="tram rail_urban rail rail_electric rail_fast ship container cable_car subway aircraft wheelchair scooter drone" speed="7.63" length="13.97" shape="1062.84,737.46 1063.27,734.94 1065.24,733.14 1068.76,732.07 1073.82,731.73"/>
    </edge>
    <edge id=":1729980601_0" function="internal">
        <lane id=":1729980601_0_0" index="0" disallow="tram rail_urban rail rail_electric rail_fast ship container cable_car subway aircraft wheelchair scooter drone" speed="5.63" length="9.28" shape="1226.00,744.25 1223.48,745.49 1222.44,747.00 1222.89,748.77 1224.83,750.81"/>
        <lane id=":1729980601_0_1" index="1" disallow="tram rail_urban rail rail_electric rail_fast ship container cable_car subway aircraft wheelchair scooter drone" speed="6.58" length="13.23" shape="1226.00,744.25 1222.01,746.10 1220.15,748.23 1220.41,750.63 1222.81,753.30"/>
    </edge>
    <edge id=":1729980601_2" function="internal">
        <lane id=":1729980601_2_0" index="0" disallow="tram rail_urban rail rail_electric rail_fast ship container cable_car subway aircraft wheelchair scooter drone" speed="27.78" length="15.61" shape="1226.00,744.25 1211.29,749.36"/>
        <lane id=":1729980601_2_1" index="1" disallow="tram rail_urban rail rail_electric rail_fast ship container cable_car subway aircraft wheelchair scooter drone" speed="27.78" length="15.61" shape="1224.98,741.22 1210.20,746.35"/>
    </edge>
    <edge id=":1919784843_0" function="internal">
        <lane id=":1919784843_0_0" index="0" disallow="tram rail_urban rail rail_electric rail_fast ship container cable_car subway aircraft wheelchair scooter drone" speed="27.78" length="0.94" shape="1198.98,803.42 1199.34,803.13 1199.60,802.95 1199.87,802.78 1200.28,802.57"/>
        <lane id=":1919784843_0_1" index="1" disallow="tram rail_urban rail rail_electric rail_fast ship container cable_car subway aircraft wheelchair scooter drone" speed="27.78" length="0.94" shape="1200.98,805.91 1201.20,805.74 1201.36,805.63 1201.52,805.53 1201.77,805.40"/>
        <lane id=":1919784843_0_2" index="2" disallow="tram rail_urban rail rail_electric rail_fast ship container cable_car subway aircraft wheelchair scooter drone" speed="27.78" length="0.94" shape="1202.99,808.41 1203.06,808.35 1203.11,808.31 1203.17,808.28 1203.25,808.24"/>
    </edge>
    <edge id=":1919784863_0" function="internal">
        <lane id=":1919784863_0_0" index="0" disallow="tram rail_urban rail rail_electric rail_fast ship container cable_car subway aircraft wheelchair scooter drone" speed="27.78" length="29.39" shape="1178.36,845.71 1180.71,837.13 1182.09,831.16 1183.90,825.37 1187.56,817.33"/>
        <lane id=":1919784863_0_1" index="1" disallow="tram rail_urban rail rail_electric rail_fast ship container cable_car subway aircraft wheelchair scooter drone" speed="27.78" length="29.39" shape="1181.42,846.65 1183.72,838.23 1185.06,832.37 1186.83,826.67 1190.42,818.77"/>
        <lane id=":1919784863_0_2" index="2" disallow="tram rail_urban rail rail_electric rail_fast ship container cable_car subway aircraft wheelchair scooter drone" speed="27.78" length="29.39" shape="1184.47,847.60 1186.73,839.33 1188.03,833.57 1189.75,827.98 1193.27,820.22"/>
    </edge>
    <edge id=":1919784863_3" function="internal">
        <lane id=":1919784863_3_0" index="0" disallow="tram rail_urban rail rail_electric rail_fast ship container cable_car subway aircraft wheelchair scooter drone" speed="16.09" length="31.47" shape="1189.03,848.11 1185.67,840.01 1184.31,832.17 1184.94,824.61 1187.56,817.33"/>
        <lane id=":1919784863_3_1" index="1" disallow="tram rail_urban rail rail_electric rail_fast ship container cable_car subway aircraft wheelchair scooter drone" speed="14.02" length="31.47" shape="1192.82,848.41 1188.59,841.71 1186.79,834.54 1187.39,826.89 1190.42,818.77"/>
        <lane id=":1919784863_3_2" index="2" disallow="tram rail_urban rail rail_electric rail_fast ship container cable_car subway aircraft wheelchair scooter drone" speed="13.81" length="31.47" shape="1197.29,848.76 1192.72,841.83 1190.52,834.77 1190.71,827.56 1193.27,820.22"/>
    </edge>
    <edge id=":2302146468_0" function="internal">
        <lane id=":2302146468_0_0" index="0" disallow="tram rail_urban rail rail_electric rail_fast ship container cable_car subway aircraft wheelchair scooter drone" speed="27.78" length="18.60" shape="1142.32,904.89 1141.11,899.33 1140.39,895.50 1139.98,891.63 1139.72,885.95"/>
        <lane id=":2302146468_0_1" index="1" disallow="tram rail_urban rail rail_electric rail_fast ship container cable_car subway aircraft wheelchair scooter drone" speed="27.78" length="18.60" shape="1145.45,904.22 1144.28,898.83 1143.57,895.11 1143.17,891.35 1142.92,885.84"/>
        <lane id=":2302146468_0_2" index="2" disallow="tram rail_urban rail rail_electric rail_fast ship container cable_car subway aircraft wheelchair scooter drone" speed="27.78" length="18.60" shape="1148.58,903.55 1147.44,898.32 1146.75,894.72 1146.36,891.08 1146.11,885.74"/>
    </edge>
    <edge id=":2302146468_3" function="internal">
        <lane id=":2302146468_3_0" index="0" disallow="tram rail_urban rail rail_electric rail_fast ship container cable_car subway aircraft wheelchair scooter drone" speed="8.91" length="21.71" shape="1154.13,896.05 1148.01,897.12 1143.56,895.80 1140.80,892.07 1139.72,885.95"/>
        <lane id=":2302146468_3_1" index="1" disallow="tram rail_urban rail rail_electric rail_fast ship container cable_car subway aircraft wheelchair scooter drone" speed="7.59" length="15.40" shape="1153.14,893.00 1148.79,893.77 1145.64,892.83 1143.68,890.19 1142.92,885.84"/>
        <lane id=":2302146468_3_2" index="2" disallow="tram rail_urban rail rail_electric rail_fast ship container cable_car subway aircraft wheelchair scooter drone" speed="5.98" length="9.08" shape="1152.14,889.96 1149.58,890.41 1147.72,889.86 1146.57,888.30 1146.11,885.74"/>
    </edge>
    <edge id=":2302148185_0" function="internal">
        <lane id=":2302148185_0_0" index="0" disallow="tram rail_urban rail rail_electric rail_fast ship container cable_car subway aircraft wheelchair scooter drone" speed="5.50" length="9.58" shape="1167.30,852.79 1167.41,855.80 1168.35,857.31 1170.12,857.30 1172.73,855.78"/>
    </edge>
    <edge id=":2302148185_1" function="internal">
        <lane id=":2302148185_1_0" index="0" disallow="tram rail_urban rail rail_electric rail_fast ship container cable_car subway aircraft wheelchair scooter drone" speed="27.78" length="25.14" shape="1167.30,852.79 1165.85,877.70"/>
        <lane id=":2302148185_1_1" index="1" disallow="tram rail_urban rail rail_electric rail_fast ship container cable_car subway aircraft wheelchair scooter drone" speed="27.78" length="25.14" shape="1164.11,852.53 1162.65,877.62"/>
        <lane id=":2302148185_1_2" index="2" disallow="tram rail_urban rail rail_electric rail_fast ship container cable_car subway aircraft wheelchair scooter drone" speed="27.78" length="25.14" shape="1160.92,852.26 1159.45,877.54"/>
    </edge>
    <edge id=":2302148185_4" function="internal">