<?xml version="1.0" encoding="UTF-8"?>

<!-- generated on 2026-05-17T21:07:21.565150+07:00 by Eclipse SUMO netedit 1.26.0
<neteditConfiguration xmlns:xsi="http://www.w3.org/2001/XMLSchema-instance" xsi:noNamespaceSchemaLocation="http://sumo.dlr.de/xsd/neteditConfiguration.xsd">

    <input>
        <sumo-net-file value="map.net.xml"/>
    </input>

    <output>
        <output-file value="map.net.xml"/>
    </output>

    <processing>
        <geometry.min-radius.fix.railways value="false"/>
        <geometry.avoid-overlap value="false"/>
        <geometry.max-grade.fix value="false"/>
        <offset.disable-normalization value="true"/>
        <lefthand value="0"/>
    </processing>

    <junctions>
        <no-turnarounds value="true"/>
        <junctions.corner-detail value="5"/>
        <junctions.limit-turn-speed value="5.50"/>
        <rectangular-lane-cut value="0"/>
    </junctions>

    <pedestrian>
        <walkingareas value="0"/>
    </pedestrian>

</neteditConfiguration>
-->

<net version="1.20" junctionCornerDetail="5" limitTurnSpeed="5.50" avoidOverlap="0" xmlns:xsi="http://www.w3.org/2001/XMLSchema-instance" xsi:noNamespaceSchemaLocation="http://sumo.dlr.de/xsd/net_file.xsd">

    <location netOffset="0.00,0.00" convBoundary="-81.81,-888.77,1556.40,507.35" origBoundary="-10000000000.00,-10000000000.00,10000000000.00,10000000000.00" projParameter="!"/>

    <edge id=":J102_0" function="internal">
        <lane id=":J102_0_0" index="0" speed="6.16" length="6.19" shape="778.73,428.88 777.09,428.91 775.70,428.47 774.56,427.56 773.68,426.18"/>
    </edge>
    <edge id=":J102_1" function="internal">
        <lane id=":J102_1_0" index="0" speed="3.95" length="2.06" shape="776.57,424.82 776.87,425.28 777.25,425.58 777.71,425.73 778.26,425.72"/>
    </edge>
    <edge id=":J13_0" function="internal">
        <lane id=":J13_0_0" index="0" speed="7.01" length="10.02" shape="601.24,362.93 600.23,360.56 598.61,359.02 596.37,358.31 593.51,358.43"/>
    </edge>
    <edge id=":J13_1" function="internal">
        <lane id=":J13_1_0" index="0" speed="13.89" length="21.07" shape="601.24,362.93 596.19,342.45"/>
        <lane id=":J13_1_1" index="1" speed="13.89" length="21.07" shape="604.34,362.15 599.30,341.70"/>
    </edge>
    <edge id=":J13_3" function="internal">
        <lane id=":J13_3_0" index="0" speed="9.41" length="4.97" shape="604.34,362.15 603.85,357.20"/>
    </edge>
    <edge id=":J13_16" function="internal">
        <lane id=":J13_16_0" index="0" speed="9.41" length="14.52" shape="603.85,357.20 603.83,356.96 605.14,352.77 608.28,349.58 613.24,347.40"/>
    </edge>
    <edge id=":J13_4" function="internal">
        <lane id=":J13_4_0" index="0" speed="6.71" length="9.43" shape="615.00,353.55 612.55,354.62 610.99,356.14 610.32,358.14 610.55,360.60"/>
    </edge>
    <edge id=":J13_5" function="internal">
        <lane id=":J13_5_0" index="0" speed="13.89" length="21.88" shape="615.00,353.55 608.97,355.24 604.35,356.40 599.67,357.35 593.51,358.43"/>
        <lane id=":J13_5_1" index="1" speed="13.89" length="21.88" shape="614.12,350.48 608.15,352.15 603.64,353.28 599.09,354.21 592.97,355.27"/>
    </edge>
    <edge id=":J13_7" function="internal">
        <lane id=":J13_7_0" index="0" speed="9.23" length="5.09" shape="614.12,350.48 609.08,351.16"/>
    </edge>
    <edge id=":J13_17" function="internal">
        <lane id=":J13_17_0" index="0" speed="9.23" length="14.74" shape="609.08,351.16 608.74,351.20 604.48,349.98 601.34,346.81 599.30,341.70"/>
    </edge>
    <edge id=":J13_8" function="internal">
        <lane id=":J13_8_0" index="0" speed="6.47" length="9.19" shape="605.52,340.19 606.47,342.58 607.92,344.07 609.88,344.65 612.35,344.32"/>
    </edge>
    <edge id=":J13_9" function="internal">
        <lane id=":J13_9_0" index="0" speed="13.89" length="21.03" shape="605.52,340.19 610.55,360.60"/>
        <lane id=":J13_9_1" index="1" speed="13.89" length="21.03" shape="602.41,340.94 607.45,361.37"/>
    </edge>
    <edge id=":J13_11" function="internal">
        <lane id=":J13_11_0" index="0" speed="9.15" length="4.86" shape="602.41,340.94 602.87,345.78"/>
    </edge>
    <edge id=":J13_18" function="internal">
        <lane id=":J13_18_0" index="0" speed="9.15" length="15.03" shape="602.87,345.78 602.94,346.42 601.54,350.64 598.22,353.59 592.97,355.27"/>
    </edge>
    <edge id=":J13_12" function="internal">
        <lane id=":J13_12_0" index="0" speed="6.36" length="9.04" shape="591.91,348.96 594.29,348.20 595.80,346.86 596.43,344.94 596.19,342.45"/>
    </edge>
    <edge id=":J13_13" function="internal">
        <lane id=":J13_13_0" index="0" speed="13.89" length="21.16" shape="591.91,348.96 597.91,347.92 602.22,347.05 606.49,345.98 612.35,344.32"/>
        <lane id=":J13_13_1" index="1" speed="13.89" length="21.16" shape="592.44,352.12 598.50,351.06 602.93,350.17 607.32,349.07 613.24,347.40"/>
    </edge>
    <edge id=":J13_15" function="internal">
        <lane id=":J13_15_0" index="0" speed="9.63" length="5.17" shape="592.44,352.12 597.61,351.93"/>
    </edge>
    <edge id=":J13_19" function="internal">
        <lane id=":J13_19_0" index="0" speed="9.63" length="14.60" shape="597.61,351.93 597.94,351.92 602.28,353.40 605.45,356.55 607.45,361.37"/>
    </edge>
    <edge id=":J14_0" function="internal">
        <lane id=":J14_0_0" index="0" speed="13.89" length="1.75" shape="534.53,93.87 534.38,93.29 534.29,92.88 534.24,92.47 534.19,91.87"/>
        <lane id=":J14_0_1" index="1" speed="13.89" length="1.75" shape="537.62,93.05 537.52,92.63 537.45,92.34 537.42,92.04 537.38,91.61"/>
    </edge>
    <edge id=":J14_2" function="internal">
        <lane id=":J14_2_0" index="0" speed="13.89" length="0.58" shape="543.76,91.11 543.77,91.20 543.77,91.26 543.79,91.31 543.81,91.40"/>
        <lane id=":J14_2_1" index="1" speed="13.89" length="0.58" shape="540.57,91.36 540.59,91.62 540.61,91.80 540.65,91.97 540.72,92.22"/>
    </edge>
    <edge id=":J15_0" function="internal">
        <lane id=":J15_0_0" index="0" speed="9.78" length="9.02" shape="525.06,-23.77 525.09,-26.08 525.57,-28.23 526.49,-30.24 527.85,-32.10"/>
        <lane id=":J15_0_1" index="1" speed="8.34" length="6.44" shape="528.25,-24.03 528.27,-25.67 528.61,-27.21 529.27,-28.64 530.24,-29.97"/>
    </edge>
    <edge id=":J15_2" function="internal">
        <lane id=":J15_2_0" index="0" speed="4.18" length="1.29" shape="535.03,-25.72 534.83,-25.45 534.70,-25.17 534.63,-24.86 534.63,-24.53"/>
        <lane id=":J15_2_1" index="1" speed="6.60" length="3.87" shape="532.64,-27.84 532.05,-27.05 531.66,-26.19 531.45,-25.27 531.44,-24.28"/>
    </edge>
    <edge id=":J16_0" function="internal">
        <lane id=":J16_0_0" index="0" speed="13.89" length="0.43" shape="583.17,-79.86 583.12,-79.82 583.09,-79.79 583.06,-79.76 583.01,-79.71"/>
        <lane id=":J16_0_1" index="1" speed="13.89" length="0.43" shape="581.08,-82.29 580.93,-82.16 580.84,-82.07 580.75,-81.98 580.62,-81.84"/>
    </edge>
    <edge id=":J16_2" function="internal">
        <lane id=":J16_2_0" index="0" speed="13.89" length="1.29" shape="575.84,-86.09 576.13,-86.42 576.34,-86.64 576.57,-86.85 576.90,-87.14"/>
        <lane id=":J16_2_1" index="1" speed="13.89" length="1.29" shape="578.23,-83.96 578.44,-84.20 578.59,-84.36 578.75,-84.50 578.99,-84.71"/>
    </edge>
    <edge id=":J17_0" function="internal">
        <lane id=":J17_0_0" index="0" speed="6.03" length="9.07" shape="721.52,-191.14 720.06,-193.27 718.36,-194.22 716.42,-194.01 714.24,-192.62"/>
    </edge>
    <edge id=":J17_1" function="internal">
        <lane id=":J17_1_0" index="0" speed="13.89" length="22.85" shape="721.52,-191.14 718.61,-197.03 716.45,-201.00 713.92,-204.73 709.89,-209.92"/>
        <lane id=":J17_1_1" index="1" speed="13.89" length="22.85" shape="724.39,-192.56 721.38,-198.63 719.16,-202.72 716.55,-206.56 712.39,-211.91"/>
        <lane id=":J17_1_2" index="2" speed="13.89" length="22.85" shape="727.26,-193.97 724.16,-200.23 721.87,-204.43 719.18,-208.39 714.90,-213.90"/>
    </edge>
    <edge id=":J17_4" function="internal">
        <lane id=":J17_4_0" index="0" speed="11.71" length="5.06" shape="727.26,-193.97 725.67,-198.78"/>
    </edge>
    <edge id=":J17_18" function="internal">
        <lane id=":J17_18_0" index="0" speed="11.71" length="20.29" shape="725.67,-198.78 725.20,-200.21 725.36,-206.08 727.73,-211.59 732.33,-216.75"/>
    </edge>
    <edge id=":J17_5" function="internal">
        <lane id=":J17_5_0" index="0" speed="9.05" length="14.81" shape="736.53,-211.92 734.54,-209.37 733.77,-206.23 734.21,-202.52 735.86,-198.23"/>
    </edge>
    <edge id=":J17_6" function="internal">
        <lane id=":J17_6_0" index="0" speed="13.89" length="29.48" shape="736.53,-211.92 714.24,-192.62"/>
        <lane id=":J17_6_1" index="1" speed="13.89" length="29.48" shape="734.43,-214.33 712.15,-195.04"/>
    </edge>
    <edge id=":J17_8" function="internal">
        <lane id=":J17_8_0" index="0" speed="9.77" length="6.36" shape="734.43,-214.33 729.19,-210.73"/>
    </edge>
    <edge id=":J17_19" function="internal">
        <lane id=":J17_19_0" index="0" speed="9.77" length="16.07" shape="729.19,-210.73 728.81,-210.47 723.68,-209.10 719.04,-210.25 714.90,-213.90"/>
    </edge>
    <edge id=":J17_9" function="internal">
        <lane id=":J17_9_0" index="0" speed="6.41" length="9.04" shape="722.42,-219.87 724.23,-218.16 726.13,-217.47 728.13,-217.80 730.22,-219.16"/>
    </edge>
    <edge id=":J17_10" function="internal">
        <lane id=":J17_10_0" index="0" speed="13.89" length="24.89" shape="722.42,-219.87 727.07,-213.89 729.99,-209.59 732.50,-205.03 735.86,-198.23"/>
        <lane id=":J17_10_1" index="1" speed="13.89" length="24.89" shape="719.91,-217.88 724.44,-212.05 727.28,-207.87 729.72,-203.43 733.00,-196.81"/>
        <lane id=":J17_10_2" index="2" speed="13.89" length="24.89" shape="717.40,-215.89 721.81,-210.22 724.58,-206.15 726.94,-201.83 730.13,-195.39"/>
    </edge>
    <edge id=":J17_13" function="internal">
        <lane id=":J17_13_0" index="0" speed="10.44" length="3.95" shape="717.40,-215.89 719.22,-212.38"/>
    </edge>
    <edge id=":J17_20" function="internal">
        <lane id=":J17_20_0" index="0" speed="10.44" length="20.19" shape="719.22,-212.38 719.97,-210.95 719.94,-205.83 717.34,-200.53 712.15,-195.04"/>
    </edge>
    <edge id=":J17_14" function="internal">
        <lane id=":J17_14_0" index="0" speed="7.36" length="11.51" shape="707.98,-199.90 710.30,-202.41 711.39,-204.92 711.25,-207.42 709.89,-209.92"/>
    </edge>
    <edge id=":J17_15" function="internal">
        <lane id=":J17_15_0" index="0" speed="13.89" length="29.44" shape="707.98,-199.90 730.22,-219.16"/>
        <lane id=":J17_15_1" index="1" speed="13.89" length="29.44" shape="710.07,-197.47 732.33,-216.75"/>
    </edge>
    <edge id=":J17_17" function="internal">
        <lane id=":J17_17_0" index="0" speed="9.54" length="5.66" shape="710.07,-197.47 714.77,-200.61"/>
    </edge>
    <edge id=":J17_21" function="internal">
        <lane id=":J17_21_0" index="0" speed="9.54" length="18.89" shape="714.77,-200.61 716.33,-201.65 721.76,-202.69 726.36,-200.61 730.13,-195.39"/>
    </edge>
    <edge id=":J18_0" function="internal">
        <lane id=":J18_0_0" index="0" speed="6.15" length="9.06" shape="516.80,-442.25 514.88,-443.92 512.97,-444.45 511.09,-443.85 509.23,-442.10"/>
    </edge>
    <edge id=":J18_1" function="internal">
        <lane id=":J18_1_0" index="0" speed="13.89" length="29.13" shape="516.80,-442.25 511.20,-448.71 507.26,-453.05 503.14,-457.21 496.96,-463.12"/>
        <lane id=":J18_1_1" index="1" speed="13.89" length="29.13" shape="519.22,-444.35 513.55,-450.88 509.58,-455.26 505.41,-459.46 499.17,-465.44"/>
        <lane id=":J18_1_2" index="2" speed="13.89" length="29.13" shape="521.64,-446.45 515.91,-453.04 511.89,-457.47 507.68,-461.72 501.37,-467.76"/>
    </edge>
    <edge id=":J18_4" function="internal">
        <lane id=":J18_4_0" index="0" speed="11.52" length="5.56" shape="521.64,-446.45 518.55,-451.08"/>
    </edge>
    <edge id=":J18_21" function="internal">
        <lane id=":J18_21_0" index="0" speed="11.52" length="21.57" shape="518.55,-451.08 517.43,-452.77 515.86,-458.96 516.93,-465.02 520.65,-470.94"/>
    </edge>
    <edge id=":J18_5" function="internal">
        <lane id=":J18_5_0" index="0" speed="8.19" length="13.25" shape="527.93,-464.68 526.23,-461.89 525.83,-458.98 526.72,-455.92 528.90,-452.73"/>
    </edge>
    <edge id=":J18_6" function="internal">
        <lane id=":J18_6_0" index="0" speed="13.89" length="29.43" shape="527.93,-464.68 509.23,-442.10"/>
        <lane id=":J18_6_1" index="1" speed="13.89" length="29.43" shape="525.50,-466.77 506.73,-444.10"/>
        <lane id=":J18_6_2" index="2" speed="13.89" length="29.43" shape="523.08,-468.85 504.23,-446.10"/>
    </edge>
    <edge id=":J18_9" function="internal">
        <lane id=":J18_9_0" index="0" speed="10.29" length="4.42" shape="523.08,-468.85 519.75,-465.95"/>
    </edge>
    <edge id=":J18_10" function="internal">
        <lane id=":J18_10_0" index="0" speed="3.65" length="1.44" shape="523.08,-468.85 521.69,-468.47"/>
    </edge>
    <edge id=":J18_22" function="internal">
        <lane id=":J18_22_0" index="0" speed="10.29" length="20.65" shape="519.75,-465.95 517.87,-464.31 512.51,-462.61 507.01,-463.76 501.37,-467.76"/>
    </edge>
    <edge id=":J18_23" function="internal">
        <lane id=":J18_23_0" index="0" speed="3.65" length="3.23" shape="521.69,-468.47 520.82,-468.68 520.48,-469.51 520.65,-470.94"/>
    </edge>
    <edge id=":J18_11" function="internal">
        <lane id=":J18_11_0" index="0" speed="6.40" length="9.04" shape="507.98,-474.72 510.01,-473.28 511.99,-472.87 513.92,-473.48 515.80,-475.12"/>
    </edge>
    <edge id=":J18_12" function="internal">
        <lane id=":J18_12_0" index="0" speed="13.89" length="30.06" shape="507.98,-474.72 514.45,-468.52 518.83,-464.11 523.01,-459.50 528.90,-452.73"/>
        <lane id=":J18_12_1" index="1" speed="13.89" length="30.06" shape="505.77,-472.40 512.22,-466.24 516.52,-461.90 520.63,-457.37 526.48,-450.64"/>
        <lane id=":J18_12_2" index="2" speed="13.89" length="30.06" shape="503.57,-470.08 509.95,-463.98 514.21,-459.69 518.27,-455.21 524.06,-448.54"/>
    </edge>
    <edge id=":J18_15" function="internal">
        <lane id=":J18_15_0" index="0" speed="11.18" length="4.80" shape="503.57,-470.08 506.51,-466.29"/>
    </edge>
    <edge id=":J18_24" function="internal">
        <lane id=":J18_24_0" index="0" speed="11.18" length="22.06" shape="506.51,-466.29 507.84,-464.57 509.37,-458.74 508.17,-452.58 504.23,-446.10"/>
    </edge>
    <edge id=":J18_16" function="internal">
        <lane id=":J18_16_0" index="0" speed="7.73" length="12.32" shape="496.73,-452.10 498.66,-455.18 499.34,-458.05 498.78,-460.69 496.96,-463.12"/>
    </edge>
    <edge id=":J18_17" function="internal">
        <lane id=":J18_17_0" index="0" speed="13.89" length="29.78" shape="496.73,-452.10 515.80,-475.12"/>
        <lane id=":J18_17_1" index="1" speed="13.89" length="29.78" shape="499.23,-450.10 518.23,-473.03"/>
        <lane id=":J18_17_2" index="2" speed="13.89" length="29.78" shape="501.73,-448.10 520.65,-470.94"/>
    </edge>
    <edge id=":J18_20" function="internal">
        <lane id=":J18_20_0" index="0" speed="10.14" length="5.62" shape="501.73,-448.10 505.83,-451.95"/>
    </edge>
    <edge id=":J18_25" function="internal">
        <lane id=":J18_25_0" index="0" speed="10.14" length="21.07" shape="505.83,-451.95 507.21,-453.24 512.76,-455.03 518.38,-453.46 524.06,-448.54"/>
    </edge>
    <edge id=":J20_0" function="internal">
        <lane id=":J20_0_0" index="0" speed="5.84" length="9.13" shape="896.21,199.05 895.15,196.60 893.67,195.41 891.77,195.47 889.45,196.78"/>
    </edge>
    <edge id=":J20_1" function="internal">
        <lane id=":J20_1_0" index="0" speed="13.89" length="23.80" shape="896.21,199.05 894.36,192.35 893.00,187.80 891.37,183.33 888.72,176.92"/>
        <lane id=":J20_1_1" index="1" speed="13.89" length="23.80" shape="899.29,198.19 897.41,191.38 896.02,186.74 894.36,182.20 891.67,175.67"/>
        <lane id=":J20_1_2" index="2" speed="13.89" length="23.80" shape="902.37,197.33 900.46,190.41 899.05,185.69 897.36,181.07 894.62,174.43"/>
    </edge>
    <edge id=":J20_4" function="internal">
        <lane id=":J20_4_0" index="0" speed="10.75" length="4.79" shape="902.37,197.33 901.69,192.59"/>
    </edge>
    <edge id=":J20_18" function="internal">
        <lane id=":J20_18_0" index="0" speed="10.75" length="20.51" shape="901.69,192.59 901.34,190.20 902.59,184.43 906.12,180.03 911.91,176.99"/>
    </edge>
    <edge id=":J20_5" function="internal">
        <lane id=":J20_5_0" index="0" speed="7.90" length="13.21" shape="913.97,183.05 911.86,184.45 910.74,186.87 910.63,190.32 911.51,194.80"/>
    </edge>
    <edge id=":J20_6" function="internal">
        <lane id=":J20_6_0" index="0" speed="13.89" length="28.75" shape="913.97,183.05 907.26,185.70 901.13,188.84 895.30,192.52 889.45,196.78"/>
        <lane id=":J20_6_1" index="1" speed="13.89" length="28.75" shape="912.94,180.02 906.09,182.74 899.65,186.05 893.50,189.91 887.50,194.24"/>
    </edge>
    <edge id=":J20_8" function="internal">
        <lane id=":J20_8_0" index="0" speed="9.98" length="4.42" shape="912.94,180.02 908.63,180.99"/>
    </edge>
    <edge id=":J20_19" function="internal">
        <lane id=":J20_19_0" index="0" speed="9.98" length="16.99" shape="908.63,180.99 906.56,181.45 901.38,180.99 897.40,178.65 894.62,174.43"/>
    </edge>
    <edge id=":J20_9" function="internal">
        <lane id=":J20_9_0" index="0" speed="6.70" length="9.11" shape="903.46,170.70 904.73,172.80 906.39,174.04 908.44,174.43 910.89,173.96"/>
    </edge>
    <edge id=":J20_10" function="internal">
        <lane id=":J20_10_0" index="0" speed="13.89" length="25.03" shape="903.46,170.70 906.33,177.68 908.07,182.55 909.52,187.51 911.51,194.80"/>
        <lane id=":J20_10_1" index="1" speed="13.89" length="25.03" shape="900.51,171.94 903.33,178.81 905.04,183.60 906.47,188.49 908.43,195.65"/>
        <lane id=":J20_10_2" index="2" speed="13.89" length="25.03" shape="897.57,173.19 900.34,179.94 902.02,184.65 903.42,189.46 905.35,196.51"/>
    </edge>
    <edge id=":J20_13" function="internal">
        <lane id=":J20_13_0" index="0" speed="11.64" length="3.55" shape="897.57,173.19 898.23,176.67"/>
    </edge>
    <edge id=":J20_20" function="internal">
        <lane id=":J20_20_0" index="0" speed="11.64" length="21.58" shape="898.23,176.67 898.53,178.29 897.18,183.50 893.50,188.81 887.50,194.24"/>
    </edge>
    <edge id=":J20_14" function="internal">
        <lane id=":J20_14_0" index="0" speed="8.90" length="14.35" shape="883.61,189.16 886.85,186.16 888.77,183.13 889.40,180.04 888.72,176.92"/>
    </edge>
    <edge id=":J20_15" function="internal">
        <lane id=":J20_15_0" index="0" speed="13.89" length="30.82" shape="883.61,189.16 889.89,184.67 896.68,180.48 903.75,176.83 910.89,173.96"/>
        <lane id=":J20_15_1" index="1" speed="13.89" length="30.82" shape="885.56,191.70 891.70,187.29 898.16,183.27 904.92,179.79 911.91,176.99"/>
    </edge>
    <edge id=":J20_17" function="internal">
        <lane id=":J20_17_0" index="0" speed="9.43" length="7.31" shape="885.56,191.70 891.87,188.00"/>
    </edge>
    <edge id=":J20_21" function="internal">
        <lane id=":J20_21_0" index="0" speed="9.43" length="18.69" shape="891.87,188.00 892.50,187.63 898.12,187.08 902.40,190.04 905.35,196.51"/>
    </edge>
    <edge id=":J22_0" function="internal">
        <lane id=":J22_0_0" index="0" speed="6.91" length="9.62" shape="953.99,408.37 953.05,406.11 951.50,404.62 949.35,403.90 946.60,403.97"/>
    </edge>
    <edge id=":J22_1" function="internal">
        <lane id=":J22_1_0" index="0" speed="13.89" length="14.60" shape="953.99,408.37 950.32,394.35"/>
        <lane id=":J22_1_1" index="1" speed="13.89" length="14.60" shape="957.10,407.62 953.41,393.50"/>
        <lane id=":J22_1_2" index="2" speed="13.89" length="14.60" shape="960.21,406.87 956.49,392.64"/>
    </edge>
    <edge id=":J22_4" function="internal">
        <lane id=":J22_4_0" index="0" speed="13.89" length="14.93" shape="965.74,390.08 969.55,404.63"/>
        <lane id=":J22_4_1" index="1" speed="13.89" length="14.93" shape="962.66,390.93 966.43,405.38"/>
        <lane id=":J22_4_2" index="2" speed="13.89" length="14.93" shape="959.57,391.79 963.32,406.13"/>
    </edge>
    <edge id=":J22_7" function="internal">
        <lane id=":J22_7_0" index="0" speed="9.13" length="3.47" shape="959.57,391.79 959.74,395.25"/>
    </edge>
    <edge id=":J22_11" function="internal">
        <lane id=":J22_11_0" index="0" speed="9.13" length="17.07" shape="959.74,395.25 959.79,396.24 957.70,399.76 953.30,402.33 946.60,403.97"/>
    </edge>
    <edge id=":J22_8" function="internal">
        <lane id=":J22_8_0" index="0" speed="6.26" length="9.05" shape="946.13,400.80 948.55,400.08 950.05,398.76 950.64,396.85 950.32,394.35"/>
    </edge>
    <edge id=":J22_9" function="internal">
        <lane id=":J22_9_0" index="0" speed="10.27" length="22.40" shape="946.13,400.80 954.35,400.06 960.48,400.57 964.50,402.34 966.43,405.38"/>
        <lane id=":J22_9_1" index="1" speed="9.64" length="19.65" shape="946.13,400.80 952.97,400.28 958.11,400.99 961.56,402.94 963.32,406.13"/>
    </edge>
    <edge id=":J25_0" function="internal">
        <lane id=":J25_0_0" index="0" speed="6.00" length="9.08" shape="866.91,-317.84 865.46,-320.00 863.78,-320.96 861.84,-320.74 859.67,-319.33"/>
    </edge>
    <edge id=":J25_1" function="internal">
        <lane id=":J25_1_0" index="0" speed="13.89" length="23.44" shape="866.91,-317.84 864.08,-323.63 861.68,-328.22 859.08,-332.70 855.67,-338.17"/>
        <lane id=":J25_1_1" index="1" speed="13.89" length="23.44" shape="869.79,-319.23 866.94,-325.07 864.47,-329.77 861.81,-334.37 858.37,-339.89"/>
    </edge>
    <edge id=":J25_3" function="internal">
        <lane id=":J25_3_0" index="0" speed="11.14" length="5.45" shape="869.79,-319.23 868.05,-324.40"/>
    </edge>
    <edge id=":J25_16" function="internal">
        <lane id=":J25_16_0" index="0" speed="11.14" length="17.22" shape="868.05,-324.40 867.81,-325.12 867.75,-330.51 869.63,-335.41 873.44,-339.81"/>
    </edge>
    <edge id=":J25_4" function="internal">
        <lane id=":J25_4_0" index="0" speed="8.92" length="14.25" shape="877.64,-334.98 875.31,-332.25 874.19,-329.18 874.27,-325.77 875.56,-322.00"/>
    </edge>
    <edge id=":J25_5" function="internal">
        <lane id=":J25_5_0" index="0" speed="13.89" length="23.83" shape="877.64,-334.98 859.67,-319.33"/>
        <lane id=":J25_5_1" index="1" speed="13.89" length="23.83" shape="875.54,-337.39 857.56,-321.74"/>
    </edge>
    <edge id=":J25_7" function="internal">
        <lane id=":J25_7_0" index="0" speed="9.05" length="4.93" shape="875.54,-337.39 871.39,-334.72"/>
    </edge>
    <edge id=":J25_17" function="internal">
        <lane id=":J25_17_0" index="0" speed="9.05" length="15.60" shape="871.39,-334.72 870.70,-334.28 866.23,-333.66 862.12,-335.53 858.37,-339.89"/>
    </edge>
    <edge id=":J25_8" function="internal">
        <lane id=":J25_8_0" index="0" speed="6.21" length="9.05" shape="863.77,-343.32 865.43,-341.40 867.24,-340.58 869.21,-340.85 871.34,-342.22"/>
    </edge>
    <edge id=":J25_9" function="internal">
        <lane id=":J25_9_0" index="0" speed="13.89" length="24.19" shape="863.77,-343.32 867.27,-337.70 870.06,-332.88 872.65,-327.95 875.56,-322.00"/>
        <lane id=":J25_9_1" index="1" speed="13.89" length="24.19" shape="861.07,-341.60 864.54,-336.03 867.26,-331.32 869.79,-326.51 872.68,-320.61"/>
    </edge>
    <edge id=":J25_11" function="internal">
        <lane id=":J25_11_0" index="0" speed="10.50" length="5.15" shape="861.07,-341.60 863.17,-336.90"/>
    </edge>
    <edge id=":J25_18" function="internal">
        <lane id=":J25_18_0" index="0" speed="10.50" length="17.16" shape="863.17,-336.90 863.43,-336.31 863.63,-331.24 861.68,-326.38 857.56,-321.74"/>
    </edge>
    <edge id=":J25_12" function="internal">
        <lane id=":J25_12_0" index="0" speed="8.16" length="13.08" shape="853.36,-326.56 855.84,-329.33 857.06,-332.19 857.00,-335.13 855.67,-338.17"/>
    </edge>
    <edge id=":J25_13" function="internal">
        <lane id=":J25_13_0" index="0" speed="13.89" length="23.84" shape="853.36,-326.56 871.34,-342.22"/>
        <lane id=":J25_13_1" index="1" speed="13.89" length="23.84" shape="855.46,-324.15 873.44,-339.81"/>
    </edge>
    <edge id=":J25_15" function="internal">
        <lane id=":J25_15_0" index="0" speed="8.92" length="5.03" shape="855.46,-324.15 859.68,-326.89"/>
    </edge>
    <edge id=":J25_19" function="internal">
        <lane id=":J25_19_0" index="0" speed="8.92" length="16.55" shape="859.68,-326.89 860.64,-327.51 865.23,-328.03 869.24,-325.74 872.68,-320.61"/>
    </edge>
    <edge id=":J29_0" function="internal">
        <lane id=":J29_0_0" index="0" speed="6.35" length="9.04" shape="949.83,-149.76 948.10,-151.58 946.24,-152.35 944.24,-152.08 942.11,-150.77"/>
    </edge>
    <edge id=":J29_1" function="internal">
        <lane id=":J29_1_0" index="0" speed="13.89" length="23.73" shape="949.83,-149.76 946.11,-155.17 943.25,-159.79 940.66,-164.58 937.76,-170.47"/>
        <lane id=":J29_1_1" index="1" speed="13.89" length="23.73" shape="952.43,-151.61 948.76,-156.95 945.99,-161.41 943.50,-166.04 940.64,-171.85"/>
    </edge>
    <edge id=":J29_3" function="internal">
        <lane id=":J29_3_0" index="0" speed="10.11" length="5.01" shape="952.43,-151.61 950.20,-156.10"/>
    </edge>
    <edge id=":J29_16" function="internal">
        <lane id=":J29_16_0" index="0" speed="10.11" length="16.62" shape="950.20,-156.10 949.96,-156.59 949.69,-161.42 951.62,-166.12 955.75,-170.68"/>
    </edge>
    <edge id=":J29_4" function="internal">
        <lane id=":J29_4_0" index="0" speed="7.66" length="11.99" shape="959.92,-165.82 957.51,-163.22 956.33,-160.60 956.38,-157.97 957.65,-155.32"/>
    </edge>
    <edge id=":J29_5" function="internal">
        <lane id=":J29_5_0" index="0" speed="13.89" length="23.29" shape="959.92,-165.82 942.11,-150.77"/>
        <lane id=":J29_5_1" index="1" speed="13.89" length="23.29" shape="957.83,-168.25 940.06,-153.24"/>
    </edge>
    <edge id=":J29_7" function="internal">
        <lane id=":J29_7_0" index="0" speed="8.93" length="5.28" shape="957.83,-168.25 953.38,-165.41"/>
    </edge>
    <edge id=":J29_17" function="internal">
        <lane id=":J29_17_0" index="0" speed="8.93" length="16.23" shape="953.38,-165.41 952.65,-164.95 948.06,-164.46 944.06,-166.76 940.64,-171.85"/>
    </edge>
    <edge id=":J29_8" function="internal">
        <lane id=":J29_8_0" index="0" speed="6.02" length="9.08" shape="946.41,-174.63 947.85,-172.48 949.54,-171.51 951.48,-171.72 953.66,-173.11"/>
    </edge>
    <edge id=":J29_9" function="internal">
        <lane id=":J29_9_0" index="0" speed="13.89" length="22.66" shape="946.41,-174.63 949.18,-168.95 951.49,-164.65 954.06,-160.51 957.65,-155.32"/>
        <lane id=":J29_9_1" index="1" speed="13.89" length="22.66" shape="943.53,-173.24 946.34,-167.50 948.74,-163.03 951.41,-158.73 955.04,-153.47"/>
    </edge>
    <edge id=":J29_11" function="internal">
        <lane id=":J29_11_0" index="0" speed="10.89" length="5.54" shape="943.53,-173.24 945.32,-167.99"/>
    </edge>
    <edge id=":J29_18" function="internal">
        <lane id=":J29_18_0" index="0" speed="10.89" length="16.55" shape="945.32,-167.99 945.52,-167.40 945.60,-162.12 943.79,-157.40 940.06,-153.24"/>
    </edge>
    <edge id=":J29_12" function="internal">
        <lane id=":J29_12_0" index="0" speed="8.62" length="13.52" shape="935.98,-158.16 938.15,-160.64 939.17,-163.52 939.04,-166.80 937.76,-170.47"/>
    </edge>
    <edge id=":J29_13" function="internal">
        <lane id=":J29_13_0" index="0" speed="13.89" length="23.18" shape="935.98,-158.16 953.66,-173.11"/>
        <lane id=":J29_13_1" index="1" speed="13.89" length="23.18" shape="938.02,-155.70 955.75,-170.68"/>
    </edge>
    <edge id=":J29_15" function="internal">
        <lane id=":J29_15_0" index="0" speed="9.14" length="4.69" shape="938.02,-155.70 942.02,-158.15"/>
    </edge>
    <edge id=":J29_19" function="internal">
        <lane id=":J29_19_0" index="0" speed="9.14" length="15.24" shape="942.02,-158.15 942.73,-158.58 947.13,-159.17 951.24,-157.47 955.04,-153.47"/>
    </edge>
    <edge id=":J3_0" function="internal">
        <lane id=":J3_0_0" index="0" speed="6.01" length="9.08" shape="206.22,7.68 203.97,6.39 202.02,6.28 200.39,7.34 199.06,9.57"/>
    </edge>
    <edge id=":J3_1" function="internal">
        <lane id=":J3_1_0" index="0" speed="13.89" length="27.77" shape="206.22,7.68 201.44,4.50 194.42,0.36 187.27,-3.54 182.07,-5.98"/>
    </edge>
    <edge id=":J3_2" function="internal">
        <lane id=":J3_2_0" index="0" speed="10.13" length="20.26" shape="206.22,7.68 200.84,2.93 197.50,-1.38 196.17,-5.26 196.87,-8.72"/>
    </edge>
    <edge id=":J3_3" function="internal">
        <lane id=":J3_3_0" index="0" speed="7.53" length="10.78" shape="205.36,-4.24 204.52,-1.74 204.72,0.66 205.94,2.96 208.18,5.15"/>
    </edge>
    <edge id=":J3_4" function="internal">
        <lane id=":J3_4_0" index="0" speed="13.89" length="15.48" shape="205.36,-4.24 203.29,-0.23 201.97,2.55 200.78,5.40 199.06,9.57"/>
        <lane id=":J3_4_1" index="1" speed="13.89" length="15.48" shape="202.53,-5.73 200.42,-1.65 199.08,1.19 197.86,4.09 196.11,8.34"/>
        <lane id=":J3_4_2" index="2" speed="13.89" length="15.48" shape="199.70,-7.23 197.55,-3.07 196.18,-0.17 194.94,2.78 193.15,7.11"/>
    </edge>
    <edge id=":J3_7" function="internal">
        <lane id=":J3_7_0" index="0" speed="9.68" length="2.65" shape="199.70,-7.23 197.88,-5.30"/>
    </edge>