<?xml version="1.0" encoding="UTF-8"?>

<!-- generated on 2026-04-16T08:52:21.702016+07:00 by Eclipse SUMO netconvert 1.26.0
<netconvertConfiguration xmlns:xsi="http://www.w3.org/2001/XMLSchema-instance" xsi:noNamespaceSchemaLocation="http://sumo.dlr.de/xsd/netconvertConfiguration.xsd">

    <input>
        <sumo-net-file value="map.net.xml"/>
    </input>

    <output>
        <output-file value="map_no_uturn.net.xml"/>
    </output>

    <processing>
        <geometry.min-radius.fix.railways value="false"/>
        <geometry.avoid-overlap value="false"/>
        <geometry.max-grade.fix value="false"/>
        <offset.disable-normalization value="true"/>
        <lefthand value="0"/>
    </processing>

    <junctions>
        <no-turnarounds value="true"/>
        <junctions.corner-detail value="5"/>
        <junctions.limit-turn-speed value="5.50"/>
        <rectangular-lane-cut value="0"/>
    </junctions>

    <pedestrian>
        <walkingareas value="0"/>
    </pedestrian>

</netconvertConfiguration>
-->

<net version="1.20" junctionCornerDetail="5" limitTurnSpeed="5.50" avoidOverlap="0" xmlns:xsi="http://www.w3.org/2001/XMLSchema-instance" xsi:noNamespaceSchemaLocation="http://sumo.dlr.de/xsd/net_file.xsd">

    <location netOffset="-580968.42,-2325606.59" convBoundary="0.00,0.00,2358.33,1832.74" origBoundary="105.735219,21.024929,105.804528,21.052611" projParameter="+proj=utm +zone=48 +ellps=WGS84 +datum=WGS84 +units=m +no_defs"/>

    <type id="highway.primary" priority="12" numLanes="2" speed="27.78" disallow="tram rail_urban rail rail_electric rail_fast ship container cable_car subway aircraft wheelchair scooter drone" oneway="0"/>
    <type id="highway.secondary" priority="11" numLanes="1" speed="27.78" disallow="tram rail_urban rail rail_electric rail_fast ship container cable_car subway aircraft wheelchair scooter drone" oneway="0"/>

    <edge id=":10220809101_0" function="internal">
        <lane id=":10220809101_0_0" index="0" disallow="tram rail_urban rail rail_electric rail_fast ship container cable_car subway aircraft wheelchair scooter drone" speed="27.78" length="0.27" shape="1492.64,918.50 1492.85,918.32"/>
    </edge>
    <edge id=":10236726395_0" function="internal">
        <lane id=":10236726395_0_0" index="0" disallow="tram rail_urban rail rail_electric rail_fast ship container cable_car subway aircraft wheelchair scooter drone" speed="9.70" length="2.51" shape="1150.20,1343.25 1149.86,1342.06 1149.73,1341.21 1149.80,1340.35 1150.05,1339.14"/>
        <lane id=":10236726395_0_1" index="1" disallow="tram rail_urban rail rail_electric rail_fast ship container cable_car subway aircraft wheelchair scooter drone" speed="7.63" length="2.51" shape="1153.26,1342.31 1153.06,1341.60 1152.98,1341.09 1153.02,1340.57 1153.17,1339.85"/>
        <lane id=":10236726395_0_2" index="2" disallow="tram rail_urban rail rail_electric rail_fast ship container cable_car subway aircraft wheelchair scooter drone" speed="27.78" length="2.51" shape="1156.32,1341.37 1156.25,1341.13 1156.23,1340.96 1156.24,1340.79 1156.29,1340.55"/>
    </edge>
    <edge id=":10238223263_0" function="internal">
        <lane id=":10238223263_0_0" index="0" disallow="tram rail_urban rail rail_electric rail_fast ship container cable_car subway aircraft wheelchair scooter drone" speed="27.78" length="1.85" shape="1156.49,1204.70 1156.48,1206.59"/>
        <lane id=":10238223263_0_1" index="1" disallow="tram rail_urban rail rail_electric rail_fast ship container cable_car subway aircraft wheelchair scooter drone" speed="27.78" length="1.85" shape="1159.69,1204.75 1159.68,1206.60"/>
        <lane id=":10238223263_0_2" index="2" disallow="tram rail_urban rail rail_electric rail_fast ship container cable_car subway aircraft wheelchair scooter drone" speed="27.78" length="1.85" shape="1162.89,1204.79 1162.88,1206.61"/>
    </edge>
    <edge id=":1025803400_0" function="internal">
        <lane id=":1025803400_0_0" index="0" disallow="tram rail_urban rail rail_electric rail_fast ship container cable_car subway aircraft wheelchair scooter drone" speed="27.78" length="0.30" shape="423.59,805.90 423.29,805.91"/>
        <lane id=":1025803400_0_1" index="1" disallow="tram rail_urban rail rail_electric rail_fast ship container cable_car subway aircraft wheelchair scooter drone" speed="27.78" length="0.30" shape="423.49,802.71 423.19,802.71"/>
        <lane id=":1025803400_0_2" index="2" disallow="tram rail_urban rail rail_electric rail_fast ship container cable_car subway aircraft wheelchair scooter drone" speed="27.78" length="0.30" shape="423.39,799.51 423.09,799.52"/>
    </edge>
    <edge id=":1025803427_0" function="internal">
        <lane id=":1025803427_0_0" index="0" disallow="tram rail_urban rail rail_electric rail_fast ship container cable_car subway aircraft wheelchair scooter drone" speed="27.78" length="0.10" shape="611.23,800.53 611.23,800.53"/>
        <lane id=":1025803427_0_1" index="1" disallow="tram rail_urban rail rail_electric rail_fast ship container cable_car subway aircraft wheelchair scooter drone" speed="27.78" length="0.10" shape="611.14,797.33 611.14,797.33"/>
        <lane id=":1025803427_0_2" index="2" disallow="tram rail_urban rail rail_electric rail_fast ship container cable_car subway aircraft wheelchair scooter drone" speed="27.78" length="0.10" shape="611.05,794.13 611.05,794.13"/>
    </edge>
    <edge id=":1025803437_0" function="internal">
        <lane id=":1025803437_0_0" index="0" disallow="tram rail_urban rail rail_electric rail_fast ship container cable_car subway aircraft wheelchair scooter drone" speed="27.78" length="0.28" shape="782.81,794.16 782.58,794.17"/>
        <lane id=":1025803437_0_1" index="1" disallow="tram rail_urban rail rail_electric rail_fast ship container cable_car subway aircraft wheelchair scooter drone" speed="27.78" length="0.28" shape="782.72,790.97 782.44,790.98"/>
        <lane id=":1025803437_0_2" index="2" disallow="tram rail_urban rail rail_electric rail_fast ship container cable_car subway aircraft wheelchair scooter drone" speed="27.78" length="0.28" shape="782.63,787.77 782.29,787.78"/>
    </edge>
    <edge id=":10259539409_0" function="internal">
        <lane id=":10259539409_0_0" index="0" disallow="tram rail_urban rail rail_electric rail_fast ship container cable_car subway aircraft wheelchair scooter drone" speed="27.78" length="1.64" shape="171.07,739.80 171.34,740.65 171.51,741.24 171.63,741.84 171.76,742.73"/>
        <lane id=":10259539409_0_1" index="1" disallow="tram rail_urban rail rail_electric rail_fast ship container cable_car subway aircraft wheelchair scooter drone" speed="27.78" length="1.64" shape="168.03,740.81 168.25,741.50 168.39,741.99 168.49,742.48 168.60,743.20"/>
        <lane id=":10259539409_0_2" index="2" disallow="tram rail_urban rail rail_electric rail_fast ship container cable_car subway aircraft wheelchair scooter drone" speed="27.78" length="1.64" shape="164.99,741.82 165.17,742.36 165.27,742.73 165.35,743.11 165.43,743.68"/>
        <lane id=":10259539409_0_3" index="3" disallow="tram rail_urban rail rail_electric rail_fast ship container cable_car subway aircraft wheelchair scooter drone" speed="27.78" length="1.64" shape="161.95,742.82 162.08,743.21 162.15,743.48 162.21,743.75 162.27,744.15"/>
        <lane id=":10259539409_0_4" index="4" disallow="tram rail_urban rail rail_electric rail_fast ship container cable_car subway aircraft wheelchair scooter drone" speed="27.78" length="1.64" shape="158.91,743.83 158.99,744.06 159.04,744.22 159.07,744.39 159.11,744.63"/>
        <lane id=":10259539409_0_5" index="5" disallow="tram rail_urban rail rail_electric rail_fast ship container cable_car subway aircraft wheelchair scooter drone" speed="27.78" length="1.64" shape="155.88,744.84 155.90,744.91 155.92,744.97 155.93,745.02 155.94,745.10"/>
    </edge>
    <edge id=":10259539417_0" function="internal">
        <lane id=":10259539417_0_0" index="0" disallow="tram rail_urban rail rail_electric rail_fast ship container cable_car subway aircraft wheelchair scooter drone" speed="27.78" length="0.30" shape="120.82,822.43 120.53,822.43"/>
        <lane id=":10259539417_0_1" index="1" disallow="tram rail_urban rail rail_electric rail_fast ship container cable_car subway aircraft wheelchair scooter drone" speed="27.78" length="0.30" shape="120.76,819.23 120.45,819.23"/>
    </edge>
    <edge id=":10259539418_0" function="internal">
        <lane id=":10259539418_0_0" index="0" disallow="tram rail_urban rail rail_electric rail_fast ship container cable_car subway aircraft wheelchair scooter drone" speed="16.67" length="0.79" shape="151.49,762.46 151.84,762.45 152.08,762.46 152.32,762.50 152.67,762.57"/>
        <lane id=":10259539418_0_1" index="1" disallow="tram rail_urban rail rail_electric rail_fast ship container cable_car subway aircraft wheelchair scooter drone" speed="16.67" length="0.79" shape="151.60,765.66 151.71,765.66 151.79,765.66 151.87,765.67 151.99,765.70"/>
    </edge>
    <edge id=":10261948229_0" function="internal">
        <lane id=":10261948229_0_0" index="0" disallow="tram rail_urban rail rail_electric rail_fast ship container cable_car subway aircraft wheelchair scooter drone" speed="27.78" length="0.27" shape="1119.91,755.13 1120.05,755.10"/>
        <lane id=":10261948229_0_1" index="1" disallow="tram rail_urban rail rail_electric rail_fast ship container cable_car subway aircraft wheelchair scooter drone" speed="27.78" length="0.27" shape="1120.42,758.29 1120.82,758.21"/>
    </edge>
    <edge id=":10261948255_0" function="internal">
        <lane id=":10261948255_0_0" index="0" disallow="tram rail_urban rail rail_electric rail_fast ship container cable_car subway aircraft wheelchair scooter drone" speed="27.78" length="0.26" shape="1465.25,658.26 1465.04,658.32"/>
        <lane id=":10261948255_0_1" index="1" disallow="tram rail_urban rail rail_electric rail_fast ship container cable_car subway aircraft wheelchair scooter drone" speed="27.78" length="0.26" shape="1464.28,655.21 1463.99,655.30"/>
    </edge>
    <edge id=":10261948262_0" function="internal">
        <lane id=":10261948262_0_0" index="0" disallow="tram rail_urban rail rail_electric rail_fast ship container cable_car subway aircraft wheelchair scooter drone" speed="27.78" length="0.26" shape="1508.79,643.57 1508.59,643.64"/>
        <lane id=":10261948262_0_1" index="1" disallow="tram rail_urban rail rail_electric rail_fast ship container cable_car subway aircraft wheelchair scooter drone" speed="27.78" length="0.26" shape="1507.73,640.55 1507.45,640.65"/>
    </edge>
    <edge id=":10261948266_0" function="internal">
        <lane id=":10261948266_0_0" index="0" disallow="tram rail_urban rail rail_electric rail_fast ship container cable_car subway aircraft wheelchair scooter drone" speed="27.78" length="0.28" shape="1452.52,644.03 1452.82,643.93"/>
        <lane id=":10261948266_0_1" index="1" disallow="tram rail_urban rail rail_electric rail_fast ship container cable_car subway aircraft wheelchair scooter drone" speed="27.78" length="0.28" shape="1453.61,647.04 1453.85,646.96"/>
    </edge>
    <edge id=":10261948268_0" function="internal">
        <lane id=":10261948268_0_0" index="0" disallow="tram rail_urban rail rail_electric rail_fast ship container cable_car subway aircraft wheelchair scooter drone" speed="27.78" length="0.30" shape="1501.44,626.24 1501.73,626.13"/>
        <lane id=":10261948268_0_1" index="1" disallow="tram rail_urban rail rail_electric rail_fast ship container cable_car subway aircraft wheelchair scooter drone" speed="27.78" length="0.30" shape="1502.62,629.21 1502.89,629.10"/>
    </edge>
    <edge id=":10261948295_0" function="internal">
        <lane id=":10261948295_0_0" index="0" disallow="tram rail_urban rail rail_electric rail_fast ship container cable_car subway aircraft wheelchair scooter drone" speed="27.78" length="0.30" shape="1467.82,638.84 1468.11,638.75"/>
        <lane id=":10261948295_0_1" index="1" disallow="tram rail_urban rail rail_electric rail_fast ship container cable_car subway aircraft wheelchair scooter drone" speed="27.78" length="0.30" shape="1468.85,641.87 1469.13,641.78"/>
    </edge>
    <edge id=":10261948296_0" function="internal">
        <lane id=":10261948296_0_0" index="0" disallow="tram rail_urban rail rail_electric rail_fast ship container cable_car subway aircraft wheelchair scooter drone" speed="27.78" length="0.30" shape="1477.08,654.52 1476.80,654.61"/>
        <lane id=":10261948296_0_1" index="1" disallow="tram rail_urban rail rail_electric rail_fast ship container cable_car subway aircraft wheelchair scooter drone" speed="27.78" length="0.30" shape="1476.12,651.47 1475.84,651.56"/>
    </edge>
    <edge id=":10261948297_0" function="internal">
        <lane id=":10261948297_0_0" index="0" disallow="tram rail_urban rail rail_electric rail_fast ship container cable_car subway aircraft wheelchair scooter drone" speed="27.78" length="0.30" shape="1487.94,631.55 1488.22,631.44"/>
        <lane id=":10261948297_0_1" index="1" disallow="tram rail_urban rail rail_electric rail_fast ship container cable_car subway aircraft wheelchair scooter drone" speed="27.78" length="0.30" shape="1489.12,634.52 1489.40,634.41"/>
    </edge>
    <edge id=":10261948298_0" function="internal">
        <lane id=":10261948298_0_0" index="0" disallow="tram rail_urban rail rail_electric rail_fast ship container cable_car subway aircraft wheelchair scooter drone" speed="27.78" length="0.27" shape="1496.08,648.42 1495.75,648.53"/>
        <lane id=":10261948298_0_1" index="1" disallow="tram rail_urban rail rail_electric rail_fast ship container cable_car subway aircraft wheelchair scooter drone" speed="27.78" length="0.27" shape="1494.94,645.43 1494.75,645.49"/>
    </edge>
    <edge id=":10261948332_0" function="internal">
        <lane id=":10261948332_0_0" index="0" disallow="tram rail_urban rail rail_electric rail_fast ship container cable_car subway aircraft wheelchair scooter drone" speed="27.78" length="0.30" shape="1883.68,567.03 1883.63,566.74"/>
        <lane id=":10261948332_0_1" index="1" disallow="tram rail_urban rail rail_electric rail_fast ship container cable_car subway aircraft wheelchair scooter drone" speed="27.78" length="0.30" shape="1886.83,566.49 1886.78,566.19"/>
    </edge>
    <edge id=":10261948333_0" function="internal">
        <lane id=":10261948333_0_0" index="0" disallow="tram rail_urban rail rail_electric rail_fast ship container cable_car subway aircraft wheelchair scooter drone" speed="27.78" length="0.30" shape="1908.15,563.26 1908.20,563.57"/>
        <lane id=":10261948333_0_1" index="1" disallow="tram rail_urban rail rail_electric rail_fast ship container cable_car subway aircraft wheelchair scooter drone" speed="27.78" length="0.30" shape="1904.99,563.72 1905.03,564.02"/>
        <lane id=":10261948333_0_2" index="2" disallow="tram rail_urban rail rail_electric rail_fast ship container cable_car subway aircraft wheelchair scooter drone" speed="27.78" length="0.30" shape="1901.82,564.19 1901.86,564.47"/>
    </edge>
    <edge id=":10268959238_0" function="internal">
        <lane id=":10268959238_0_0" index="0" disallow="tram rail_urban rail rail_electric rail_fast ship container cable_car subway aircraft wheelchair scooter drone" speed="27.78" length="0.30" shape="835.83,792.40 835.51,792.41"/>
        <lane id=":10268959238_0_1" index="1" disallow="tram rail_urban rail rail_electric rail_fast ship container cable_car subway aircraft wheelchair scooter drone" speed="27.78" length="0.30" shape="835.69,789.20 835.39,789.22"/>
        <lane id=":10268959238_0_2" index="2" disallow="tram rail_urban rail rail_electric rail_fast ship container cable_car subway aircraft wheelchair scooter drone" speed="27.78" length="0.30" shape="835.55,786.01 835.28,786.02"/>
    </edge>
    <edge id=":10269216344_0" function="internal">
        <lane id=":10269216344_0_0" index="0" disallow="tram rail_urban rail rail_electric rail_fast ship container cable_car subway aircraft wheelchair scooter drone" speed="27.78" length="0.30" shape="1035.67,661.47 1035.62,661.26"/>
        <lane id=":10269216344_0_1" index="1" disallow="tram rail_urban rail rail_electric rail_fast ship container cable_car subway aircraft wheelchair scooter drone" speed="27.78" length="0.30" shape="1038.80,660.83 1038.74,660.53"/>
        <lane id=":10269216344_0_2" index="2" disallow="tram rail_urban rail rail_electric rail_fast ship container cable_car subway aircraft wheelchair scooter drone" speed="27.78" length="0.30" shape="1041.94,660.19 1041.85,659.80"/>
    </edge>
    <edge id=":10269855935_0" function="internal">
        <lane id=":10269855935_0_0" index="0" disallow="tram rail_urban rail rail_electric rail_fast ship container cable_car subway aircraft wheelchair scooter drone" speed="27.78" length="0.23" shape="1153.37,1407.43 1153.36,1407.55"/>
        <lane id=":10269855935_0_1" index="1" disallow="tram rail_urban rail rail_electric rail_fast ship container cable_car subway aircraft wheelchair scooter drone" speed="27.78" length="0.23" shape="1150.18,1407.15 1150.17,1407.49"/>
    </edge>
    <edge id=":10269855935_2" function="internal">
        <lane id=":10269855935_2_0" index="0" disallow="tram rail_urban rail rail_electric rail_fast ship container cable_car subway aircraft wheelchair scooter drone" speed="27.78" length="0.68" shape="1143.77,1407.36 1143.81,1406.58"/>
        <lane id=":10269855935_2_1" index="1" disallow="tram rail_urban rail rail_electric rail_fast ship container cable_car subway aircraft wheelchair scooter drone" speed="27.78" length="0.68" shape="1146.97,1407.43 1147.00,1406.86"/>
    </edge>
    <edge id=":10270911919_0" function="internal">
        <lane id=":10270911919_0_0" index="0" disallow="tram rail_urban rail rail_electric rail_fast ship container cable_car subway aircraft wheelchair scooter drone" speed="27.78" length="0.30" shape="918.12,768.92 918.44,768.91"/>
        <lane id=":10270911919_0_1" index="1" disallow="tram rail_urban rail rail_electric rail_fast ship container cable_car subway aircraft wheelchair scooter drone" speed="27.78" length="0.30" shape="918.29,772.12 918.59,772.10"/>
        <lane id=":10270911919_0_2" index="2" disallow="tram rail_urban rail rail_electric rail_fast ship container cable_car subway aircraft wheelchair scooter drone" speed="27.78" length="0.30" shape="918.46,775.31 918.73,775.30"/>
    </edge>
    <edge id=":10271232269_0" function="internal">
        <lane id=":10271232269_0_0" index="0" disallow="tram rail_urban rail rail_electric rail_fast ship container cable_car subway aircraft wheelchair scooter drone" speed="27.78" length="0.44" shape="1155.35,1305.77 1155.36,1305.47"/>
        <lane id=":10271232269_0_1" index="1" disallow="tram rail_urban rail rail_electric rail_fast ship container cable_car subway aircraft wheelchair scooter drone" speed="27.78" length="0.44" shape="1158.55,1305.96 1158.56,1305.52"/>
        <lane id=":10271232269_0_2" index="2" disallow="tram rail_urban rail rail_electric rail_fast ship container cable_car subway aircraft wheelchair scooter drone" speed="27.78" length="0.44" shape="1161.74,1306.15 1161.76,1305.56"/>
    </edge>
    <edge id=":10272719102_0" function="internal">
        <lane id=":10272719102_0_0" index="0" disallow="tram rail_urban rail rail_electric rail_fast ship container cable_car subway aircraft wheelchair scooter drone" speed="27.78" length="0.28" shape="1157.20,1167.34 1157.20,1167.13"/>
        <lane id=":10272719102_0_1" index="1" disallow="tram rail_urban rail rail_electric rail_fast ship container cable_car subway aircraft wheelchair scooter drone" speed="27.78" length="0.28" shape="1160.40,1167.42 1160.40,1167.14"/>
        <lane id=":10272719102_0_2" index="2" disallow="tram rail_urban rail rail_electric rail_fast ship container cable_car subway aircraft wheelchair scooter drone" speed="27.78" length="0.28" shape="1163.60,1167.50 1163.60,1167.15"/>
    </edge>
    <edge id=":10272739917_0" function="internal">
        <lane id=":10272739917_0_0" index="0" disallow="tram rail_urban rail rail_electric rail_fast ship container cable_car subway aircraft wheelchair scooter drone" speed="27.78" length="0.30" shape="1155.87,1268.81 1155.87,1268.51"/>
        <lane id=":10272739917_0_1" index="1" disallow="tram rail_urban rail rail_electric rail_fast ship container cable_car subway aircraft wheelchair scooter drone" speed="27.78" length="0.30" shape="1159.07,1268.85 1159.07,1268.55"/>
        <lane id=":10272739917_0_2" index="2" disallow="tram rail_urban rail rail_electric rail_fast ship container cable_car subway aircraft wheelchair scooter drone" speed="27.78" length="0.30" shape="1162.27,1268.89 1162.27,1268.59"/>
    </edge>
    <edge id=":10272739919_0" function="internal">
        <lane id=":10272739919_0_0" index="0" disallow="tram rail_urban rail rail_electric rail_fast ship container cable_car subway aircraft wheelchair scooter drone" speed="27.78" length="0.28" shape="1155.96,1261.98 1155.97,1261.63"/>
        <lane id=":10272739919_0_1" index="1" disallow="tram rail_urban rail rail_electric rail_fast ship container cable_car subway aircraft wheelchair scooter drone" speed="27.78" length="0.28" shape="1159.16,1262.02 1159.16,1261.74"/>
        <lane id=":10272739919_0_2" index="2" disallow="tram rail_urban rail rail_electric rail_fast ship container cable_car subway aircraft wheelchair scooter drone" speed="27.78" length="0.28" shape="1162.36,1262.06 1162.36,1261.85"/>
    </edge>
    <edge id=":10280203826_0" function="internal">
        <lane id=":10280203826_0_0" index="0" disallow="tram rail_urban rail rail_electric rail_fast ship container cable_car subway aircraft wheelchair scooter drone" speed="27.78" length="0.29" shape="140.32,1084.96 140.29,1084.65"/>
        <lane id=":10280203826_0_1" index="1" disallow="tram rail_urban rail rail_electric rail_fast ship container cable_car subway aircraft wheelchair scooter drone" speed="27.78" length="0.29" shape="143.51,1084.64 143.48,1084.39"/>
    </edge>
    <edge id=":10280203882_0" function="internal">
        <lane id=":10280203882_0_0" index="0" disallow="tram rail_urban rail rail_electric rail_fast ship container cable_car subway aircraft wheelchair scooter drone" speed="27.78" length="0.71" shape="1157.12,1366.07 1157.09,1366.17 1157.07,1366.24 1157.06,1366.31 1157.05,1366.42"/>
        <lane id=":10280203882_0_1" index="1" disallow="tram rail_urban rail rail_electric rail_fast ship container cable_car subway aircraft wheelchair scooter drone" speed="27.78" length="0.71" shape="1154.07,1365.09 1153.98,1365.39 1153.92,1365.60 1153.89,1365.82 1153.86,1366.13"/>
    </edge>
    <edge id=":10280203882_2" function="internal">
        <lane id=":10280203882_2_0" index="0" disallow="tram rail_urban rail rail_electric rail_fast ship container cable_car subway aircraft wheelchair scooter drone" speed="27.78" length="2.13" shape="1147.49,1365.56 1147.56,1364.83 1147.63,1364.33 1147.76,1363.84 1147.98,1363.13"/>
        <lane id=":10280203882_2_1" index="1" disallow="tram rail_urban rail rail_electric rail_fast ship container cable_car subway aircraft wheelchair scooter drone" speed="27.78" length="2.13" shape="1150.67,1365.85 1150.72,1365.32 1150.78,1364.96 1150.87,1364.62 1151.02,1364.11"/>
    </edge>
    <edge id=":10280203889_0" function="internal">
        <lane id=":10280203889_0_0" index="0" disallow="tram rail_urban rail rail_electric rail_fast ship container cable_car subway aircraft wheelchair scooter drone" speed="27.78" length="0.10" shape="1170.41,1342.68 1170.41,1342.66"/>
        <lane id=":10280203889_0_1" index="1" disallow="tram rail_urban rail rail_electric rail_fast ship container cable_car subway aircraft wheelchair scooter drone" speed="27.78" length="0.10" shape="1167.26,1342.09 1167.26,1342.09"/>
        <lane id=":10280203889_0_2" index="2" disallow="tram rail_urban rail rail_electric rail_fast ship container cable_car subway aircraft wheelchair scooter drone" speed="27.78" length="0.10" shape="1164.11,1341.50 1163.94,1341.47"/>
    </edge>
    <edge id=":10304029838_0" function="internal">
        <lane id=":10304029838_0_0" index="0" disallow="tram rail_urban rail rail_electric rail_fast ship container cable_car subway aircraft wheelchair scooter drone" speed="27.78" length="0.30" shape="2339.93,841.93 2340.16,841.75"/>
        <lane id=":10304029838_0_1" index="1" disallow="tram rail_urban rail rail_electric rail_fast ship container cable_car subway aircraft wheelchair scooter drone" speed="27.78" length="0.30" shape="2341.98,844.40 2342.21,844.20"/>
    </edge>
    <edge id=":10304029839_0" function="internal">
        <lane id=":10304029839_0_0" index="0" disallow="tram rail_urban rail rail_electric rail_fast ship container cable_car subway aircraft wheelchair scooter drone" speed="27.78" length="0.30" shape="2348.72,852.12 2348.50,852.32"/>
    </edge>
    <edge id=":10304029877_0" function="internal">
        <lane id=":10304029877_0_0" index="0" disallow="tram rail_urban rail rail_electric rail_fast ship container cable_car subway aircraft wheelchair scooter drone" speed="27.78" length="0.10" shape="2125.01,1022.23 2125.01,1022.23"/>
        <lane id=":10304029877_0_1" index="1" disallow="tram rail_urban rail rail_electric rail_fast ship container cable_car subway aircraft wheelchair scooter drone" speed="27.78" length="0.10" shape="2127.03,1024.71 2127.03,1024.71"/>
    </edge>
    <edge id=":10304029878_0" function="internal">
        <lane id=":10304029878_0_0" index="0" disallow="tram rail_urban rail rail_electric rail_fast ship container cable_car subway aircraft wheelchair scooter drone" speed="27.78" length="0.30" shape="2133.41,1032.48 2133.17,1032.67"/>
    </edge>
    <edge id=":10304029927_0" function="internal">
        <lane id=":10304029927_0_0" index="0" disallow="tram rail_urban rail rail_electric rail_fast ship container cable_car subway aircraft wheelchair scooter drone" speed="27.78" length="0.10" shape="1934.05,1063.60 1934.05,1063.60"/>
    </edge>
    <edge id=":10304029928_0" function="internal">
        <lane id=":10304029928_0_0" index="0" disallow="tram rail_urban rail rail_electric rail_fast ship container cable_car subway aircraft wheelchair scooter drone" speed="27.78" length="0.28" shape="1933.67,1077.37 1933.34,1077.33"/>
        <lane id=":10304029928_0_1" index="1" disallow="tram rail_urban rail rail_electric rail_fast ship container cable_car subway aircraft wheelchair scooter drone" speed="27.78" length="0.28" shape="1933.98,1074.18 1933.70,1074.15"/>
        <lane id=":10304029928_0_2" index="2" disallow="tram rail_urban rail rail_electric rail_fast ship container cable_car subway aircraft wheelchair scooter drone" speed="27.78" length="0.28" shape="1934.29,1071.00 1934.06,1070.97"/>
    </edge>
    <edge id=":10304029945_0" function="internal">
        <lane id=":10304029945_0_0" index="0" disallow="tram rail_urban rail rail_electric rail_fast ship container cable_car subway aircraft wheelchair scooter drone" speed="27.78" length="0.23" shape="1902.53,1083.14 1902.54,1082.85"/>
        <lane id=":10304029945_0_1" index="1" disallow="tram rail_urban rail rail_electric rail_fast ship container cable_car subway aircraft wheelchair scooter drone" speed="27.78" length="0.23" shape="1905.72,1083.27 1905.73,1083.10"/>
    </edge>
    <edge id=":10304029946_0" function="internal">
        <lane id=":10304029946_0_0" index="0" disallow="tram rail_urban rail rail_electric rail_fast ship container cable_car subway aircraft wheelchair scooter drone" speed="27.78" length="0.30" shape="1924.07,1083.80 1924.06,1084.09"/>
        <lane id=":10304029946_0_1" index="1" disallow="tram rail_urban rail rail_electric rail_fast ship container cable_car subway aircraft wheelchair scooter drone" speed="27.78" length="0.30" shape="1920.88,1083.68 1920.87,1083.99"/>
    </edge>
    <edge id=":10304029961_0" function="internal">
        <lane id=":10304029961_0_0" index="0" disallow="tram rail_urban rail rail_electric rail_fast ship container cable_car subway aircraft wheelchair scooter drone" speed="27.78" length="1.41" shape="1904.43,1051.79 1904.39,1053.20"/>
        <lane id=":10304029961_0_1" index="1" disallow="tram rail_urban rail rail_electric rail_fast ship container cable_car subway aircraft wheelchair scooter drone" speed="27.78" length="1.41" shape="1907.63,1051.89 1907.58,1053.30"/>
    </edge>
    <edge id=":10304029962_0" function="internal">
        <lane id=":10304029962_0_0" index="0" disallow="tram rail_urban rail rail_electric rail_fast ship container cable_car subway aircraft wheelchair scooter drone" speed="27.78" length="0.30" shape="1925.38,1053.97 1925.36,1054.27"/>
        <lane id=":10304029962_0_1" index="1" disallow="tram rail_urban rail rail_electric rail_fast ship container cable_car subway aircraft wheelchair scooter drone" speed="27.78" length="0.30" shape="1922.18,1053.77 1922.16,1054.07"/>
    </edge>
    <edge id=":10304029964_0" function="internal">
        <lane id=":10304029964_0_0" index="0" disallow="tram rail_urban rail rail_electric rail_fast ship container cable_car subway aircraft wheelchair scooter drone" speed="27.78" length="0.30" shape="1896.36,1055.31 1896.66,1055.34"/>
        <lane id=":10304029964_0_1" index="1" disallow="tram rail_urban rail rail_electric rail_fast ship container cable_car subway aircraft wheelchair scooter drone" speed="27.78" length="0.30" shape="1896.11,1058.50 1896.41,1058.53"/>
        <lane id=":10304029964_0_2" index="2" disallow="tram rail_urban rail rail_electric rail_fast ship container cable_car subway aircraft wheelchair scooter drone" speed="27.78" length="0.30" shape="1895.85,1061.69 1896.15,1061.72"/>