<?xml version="1.0" encoding="UTF-8"?>

<!-- generated on 2026-05-17 23:00:44.547334 by Eclipse SUMO randomTrips_custom.py v1_26_0+0000-fa7df22d7f1
<configuration>
    <net-file value="map.net.xml"/>
    <output-trip-file value="temp_offpeak_car.xml"/>
    <vehicle-class value="passenger"/>
    <begin value="3600.0"/>
    <end value="11400.0"/>
    <period value="2.216474078414855"/>
</configuration>
-->

<!-- generated on 2026-05-17T23:00:44.364554+07:00 by Eclipse SUMO duarouter 1.26.0
<duarouterConfiguration xmlns:xsi="http://www.w3.org/2001/XMLSchema-instance" xsi:noNamespaceSchemaLocation="http://sumo.dlr.de/xsd/duarouterConfiguration.xsd">

    <input>
        <net-file value="map.net.xml"/>
        <route-files value="temp_offpeak_car.xml"/>
    </input>

    <output>
        <output-file value="routes.rou.xml"/>
        <alternatives-output value="NUL"/>
    </output>

    <time>
        <begin value="3600.0"/>
        <end value="11400.0"/>
    </time>

    <report>
        <no-warnings value="true"/>
        <ignore-errors value="true"/>
        <no-step-log value="true"/>
    </report>

</duarouterConfiguration>
-->

<routes xmlns:xsi="http://www.w3.org/2001/XMLSchema-instance" xsi:noNamespaceSchemaLocation="http://sumo.dlr.de/xsd/routes_file.xsd">
    <vType id="passenger" vClass="passenger"/>
    <vehicle id="0" type="passenger" depart="3600.00">
        <route edges="E130 E38 E39 -E104"/>
    </vehicle>
    <vehicle id="1" type="passenger" depart="3602.22">
        <route edges="-E42 -E38 -E130 -E129 -E35 -E88 -E87 -E54"/>
    </vehicle>
    <vehicle id="2" type="passenger" depart="3604.43">
        <route edges="E39 -E104 E103 -E97 E28"/>
    </vehicle>
    <vehicle id="3" type="passenger" depart="3606.65">
        <route edges="E76 E77 E59 E85 E127 E128 E94 E95 -E130 -E129"/>
    </vehicle>
    <vehicle id="4" type="passenger" depart="3608.87">
        <route edges="-E74 -E80 -E79 E77 E59 E85 -E11"/>
    </vehicle>
    <vehicle id="5" type="passenger" depart="3611.08">
        <route edges="-E27 -E26 E69 E70 -E68 -E67 -E15 -E75 E109"/>
    </vehicle>
    <vehicle id="6" type="passenger" depart="3613.30">
        <route edges="-E104 E103 E100 E101 E102 E104 -E39 -E43"/>
    </vehicle>
    <vehicle id="7" type="passenger" depart="3615.52">
        <route edges="E131 E11 E16 -E66 -E65 E116"/>
    </vehicle>
    <vehicle id="8" type="passenger" depart="3617.73">
        <route edges="-E27 -E26 -E46 -E45 -E16 -E11 -E131 E124 E125"/>
    </vehicle>
    <vehicle id="9" type="passenger" depart="3619.95">
        <route edges="E60 E66 E18 -E122 -E98 -E103 -E102 -E101"/>
    </vehicle>
    <vehicle id="10" type="passenger" depart="3622.16">
        <route edges="E60 -E65 -E15 -E75 -E74 -E64 E63 E33"/>
    </vehicle>
    <vehicle id="11" type="passenger" depart="3624.38">
        <route edges="-E59 -E58 E55 E57 E92 E35 E129 E130 E38 E39 -E29"/>
    </vehicle>
    <vehicle id="12" type="passenger" depart="3626.60">
        <route edges="E9 E131 E11 -E85 -E84 -E83 -E75"/>
    </vehicle>
    <vehicle id="13" type="passenger" depart="3628.81">
        <route edges="-E115 -E46 -E45 -E16 -E11 -E131"/>
    </vehicle>
    <vehicle id="14" type="passenger" depart="3631.03">
        <route edges="E68 -E70 -E69 -E46 -E45 -E16 E127"/>
    </vehicle>
    <vehicle id="15" type="passenger" depart="3633.25">
        <route edges="E60 E66 E18 E20 E43"/>
    </vehicle>
    <vehicle id="16" type="passenger" depart="3635.46">
        <route edges="-E96 E95 E38 -E43 -E20 E19 E94"/>
    </vehicle>
    <vehicle id="17" type="passenger" depart="3637.68">
        <route edges="-E67 -E15 E83 E84 E85 -E11 -E131 -E9 -E91 E92 E117"/>
    </vehicle>
    <vehicle id="18" type="passenger" depart="3639.90">
        <route edges="E65 -E60 E85 E127 -E125 E126 E130"/>
    </vehicle>
    <vehicle id="19" type="passenger" depart="3642.11">
        <route edges="E71 E72 -E61 -E60 -E84 -E83 E121"/>
    </vehicle>
    <vehicle id="20" type="passenger" depart="3644.33">
        <route edges="E29 -E39 -E43 -E20 -E122"/>
    </vehicle>
    <vehicle id="21" type="passenger" depart="3646.55">
        <route edges="-E29 -E28 -E27 -E26 E69 E70 -E68 -E67"/>
    </vehicle>
    <vehicle id="22" type="passenger" depart="3648.76">
        <route edges="-E113 -E42 -E38 -E130 -E129 -E35 -E92 -E57 -E55"/>
    </vehicle>
    <vehicle id="23" type="passenger" depart="3650.98">
        <route edges="-E117 -E92 E91 E9 E131 E11 E16 -E66 -E65"/>
    </vehicle>
    <vehicle id="24" type="passenger" depart="3653.20">
        <route edges="E129 E130 -E95 -E94 -E128 -E127 -E85 -E84 -E83 -E75 -E74 -E80"/>
    </vehicle>
    <vehicle id="25" type="passenger" depart="3655.41">
        <route edges="-E65 E67 E68 -E70 -E69 -E46"/>
    </vehicle>
    <vehicle id="26" type="passenger" depart="3657.63">
        <route edges="-E40 -E119 -E118 -E35 -E92 -E57 -E55 E52 E54 E87"/>
    </vehicle>
    <vehicle id="27" type="passenger" depart="3659.84">
        <route edges="E131 E11 E127 E128"/>
    </vehicle>
    <vehicle id="28" type="passenger" depart="3662.06">
        <route edges="-E130 -E126 E125 E128 E94 E96 E43"/>
    </vehicle>
    <vehicle id="29" type="passenger" depart="3664.28">
        <route edges="-E129 -E35 -E92 E91 E9 E131 E11 -E85 -E84"/>
    </vehicle>
    <vehicle id="30" type="passenger" depart="3666.49">
        <route edges="E97 E98 E122 E19 -E128 -E127 E16"/>
    </vehicle>
    <vehicle id="31" type="passenger" depart="3668.71">
        <route edges="E101 E102 E103 E98 E122 -E18 E45 E30"/>
    </vehicle>
    <vehicle id="32" type="passenger" depart="3670.93">
        <route edges="E67 E71 E72 -E61 -E60 -E59 -E58 E55 E56"/>
    </vehicle>
    <vehicle id="33" type="passenger" depart="3673.14">
        <route edges="-E29 -E28 E97 E98 E122 E19 -E128 -E127 -E11"/>
    </vehicle>
    <vehicle id="34" type="passenger" depart="3675.36">
        <route edges="-E54 -E52 E55 E56 -E87 E86 -E33 -E63"/>
    </vehicle>
    <vehicle id="35" type="passenger" depart="3677.58">
        <route edges="-E20 E19 -E128 -E125 -E124 -E9 -E91 -E57 E56 E88"/>
    </vehicle>
    <vehicle id="36" type="passenger" depart="3679.79">
        <route edges="E73 E70 -E68 -E67 E65 E61 -E72 -E71"/>
    </vehicle>
    <vehicle id="37" type="passenger" depart="3682.01">
        <route edges="E14 -E119 -E118 -E35 -E88 -E87"/>
    </vehicle>
    <vehicle id="38" type="passenger" depart="3684.23">
        <route edges="E80 E74 E75 E83 E84 E85 E127 E128 -E19 -E122 -E98 E100 E101"/>
    </vehicle>
    <vehicle id="39" type="passenger" depart="3686.44">
        <route edges="-E39 -E38 -E95 -E94 -E128 -E127 -E85 -E59 -E58"/>
    </vehicle>
    <vehicle id="40" type="passenger" depart="3688.66">
        <route edges="E102 E103 E98 -E30 E46 E69 -E73 E72 -E61"/>
    </vehicle>
    <vehicle id="41" type="passenger" depart="3690.88">
        <route edges="E118 E119 -E14 -E95 -E94 -E128 -E127 -E85 -E59 -E77 E79"/>
    </vehicle>
    <vehicle id="42" type="passenger" depart="3693.09">
        <route edges="-E70 -E73 E72 -E61 -E60 -E59 -E58 E52 -E53"/>
    </vehicle>
    <vehicle id="43" type="passenger" depart="3695.31">
        <route edges="E98 E122 E19 -E128 -E125 -E124 E131 E11"/>
    </vehicle>
    <vehicle id="44" type="passenger" depart="3697.52">
        <route edges="-E115 -E46 -E45 E18 -E122"/>
    </vehicle>
    <vehicle id="45" type="passenger" depart="3699.74">
        <route edges="-E118 -E35 -E92 E91 E9 E131"/>
    </vehicle>
    <vehicle id="46" type="passenger" depart="3701.96">
        <route edges="E57 E91 E9 E124 E126 -E129 -E35 -E92"/>
    </vehicle>
    <vehicle id="47" type="passenger" depart="3704.17">
        <route edges="-E110 -E67 E65 -E60 -E84"/>
    </vehicle>
    <vehicle id="48" type="passenger" depart="3706.39">
        <route edges="E98 E122 E20 E43 E42 E113"/>
    </vehicle>
    <vehicle id="49" type="passenger" depart="3708.61">
        <route edges="E92 E35 E129 E130 -E95 -E94 -E128 -E127 -E85 -E84 -E83 E15 E67 E71 E72"/>
    </vehicle>
    <vehicle id="50" type="passenger" depart="3710.82">
        <route edges="-E102 -E101 -E100 -E103 E104 -E39 -E38 E14 E40"/>
    </vehicle>
    <vehicle id="51" type="passenger" depart="3713.04">
        <route edges="E20 E43 E39 -E29 -E28 -E27 E114"/>
    </vehicle>
    <vehicle id="52" type="passenger" depart="3715.26">
        <route edges="-E40 -E14 -E95 -E94 -E128 -E127 E16"/>
    </vehicle>
    <vehicle id="53" type="passenger" depart="3717.47">
        <route edges="-E119 -E118 E129 E130 E38 -E43 -E96"/>
    </vehicle>
    <vehicle id="54" type="passenger" depart="3719.69">
        <route edges="-E80 E81 E55 E57 E91 E9"/>
    </vehicle>
    <vehicle id="55" type="passenger" depart="3721.91">
        <route edges="E73 E70 -E68 E71 E72 -E61"/>
    </vehicle>
    <vehicle id="56" type="passenger" depart="3724.12">
        <route edges="-E9 -E91 E92 E35 E129 E130 -E95 E96 E43 -E38"/>
    </vehicle>
    <vehicle id="57" type="passenger" depart="3726.34">
        <route edges="E80 E74"/>
    </vehicle>
    <vehicle id="58" type="passenger" depart="3728.56">
        <route edges="-E49 -E63 E53 -E52 E55 E57 E91 E9 E131 E11 E16"/>
    </vehicle>
    <vehicle id="59" type="passenger" depart="3730.77">
        <route edges="E124 E126 E130 E38 E39 -E29"/>
    </vehicle>
    <vehicle id="60" type="passenger" depart="3732.99">
        <route edges="E52 E54 E87 E88 -E92 E91 E9 E131 E11 E16 E45 E46 E115"/>
    </vehicle>
    <vehicle id="61" type="passenger" depart="3735.20">
        <route edges="E55 E57 E92 E35 E129 E130 E38 E42 E113"/>
    </vehicle>
    <vehicle id="62" type="passenger" depart="3737.42">
        <route edges="-E100 E98 -E30 E46 E69 -E73"/>
    </vehicle>
    <vehicle id="63" type="passenger" depart="3739.64">
        <route edges="-E103 E104 -E39 -E38 -E130 -E129 -E35 -E88 -E87 E86"/>
    </vehicle>
    <vehicle id="64" type="passenger" depart="3741.85">
        <route edges="E74 E75 E15 E67"/>
    </vehicle>
    <vehicle id="65" type="passenger" depart="3744.07">
        <route edges="-E53 E63 E33 -E86 E87 E88 E35 E129 -E126 -E124"/>
    </vehicle>
    <vehicle id="66" type="passenger" depart="3746.29">
        <route edges="E74 E75 E83 E84 E85 E127 E128 E94 E95 E38 E39 -E29 E89"/>
    </vehicle>
    <vehicle id="67" type="passenger" depart="3748.50">
        <route edges="-E114 E27 E28 E29 -E39 -E38 -E130 -E129 -E35 -E88 E106"/>
    </vehicle>
    <vehicle id="68" type="passenger" depart="3750.72">
        <route edges="-E111 E70 -E68 -E67 -E15 -E75 -E74 -E64 E53"/>
    </vehicle>
    <vehicle id="69" type="passenger" depart="3752.94">
        <route edges="E52 E54 E87 E88 E35 E129 E130 -E95 E96 -E20"/>
    </vehicle>
    <vehicle id="70" type="passenger" depart="3755.15">
        <route edges="-E85 -E84 -E83 E15 E116"/>
    </vehicle>
    <vehicle id="71" type="passenger" depart="3757.37">
        <route edges="-E39 -E38 -E95 -E94 -E128 -E127 -E85 -E59 -E77 -E76 E75"/>
    </vehicle>
    <vehicle id="72" type="passenger" depart="3759.59">
        <route edges="-E75 -E74 -E64 E53 -E52"/>
    </vehicle>
    <vehicle id="73" type="passenger" depart="3761.80">
        <route edges="-E97 -E27 -E26 -E46 -E45 E18 E20 E43"/>
    </vehicle>
    <vehicle id="74" type="passenger" depart="3764.02">
        <route edges="-E19 -E18 -E66 E61 -E72 -E71"/>
    </vehicle>
    <vehicle id="75" type="passenger" depart="3766.24">
        <route edges="E98 -E30 -E45 E18"/>
    </vehicle>
    <vehicle id="76" type="passenger" depart="3768.45">
        <route edges="-E77 -E76 E75 E15 E67 E68 -E70 E111"/>
    </vehicle>
    <vehicle id="77" type="passenger" depart="3770.67">
        <route edges="-E120 E33 -E86 -E54"/>
    </vehicle>
    <vehicle id="78" type="passenger" depart="3772.88">
        <route edges="-E58 E55 E57 E91 E9 E124"/>
    </vehicle>
    <vehicle id="79" type="passenger" depart="3775.10">
        <route edges="-E29 -E28 E97 E98 E122 E19 -E128 -E125 -E124 -E9 -E91 -E57 -E55 E52 -E53"/>
    </vehicle>
    <vehicle id="80" type="passenger" depart="3777.32">
        <route edges="-E111 -E69 -E46 -E45 -E16 E127 E128 E94 E95 E14"/>
    </vehicle>
    <vehicle id="81" type="passenger" depart="3779.53">
        <route edges="-E29 -E28 E97 E98 E122 E19 -E128 -E125 -E124 -E9 -E91 -E57 -E55 -E81 E80"/>
    </vehicle>
    <vehicle id="82" type="passenger" depart="3781.75">
        <route edges="E70 -E68 -E67 -E15 E83 E84 E85 E127 E128 E94 E95 -E130 -E126"/>
    </vehicle>
    <vehicle id="83" type="passenger" depart="3783.97">
        <route edges="-E30 E46 E26 E27"/>
    </vehicle>
    <vehicle id="84" type="passenger" depart="3786.18">
        <route edges="-E26 -E46 -E45 -E16 E127 E128 E94 E96 -E20"/>
    </vehicle>
    <vehicle id="85" type="passenger" depart="3788.40">
        <route edges="E85 -E11 -E131 -E9 -E91 -E57 -E55 E52 -E53 E63 E120"/>
    </vehicle>
    <vehicle id="86" type="passenger" depart="3790.62">
        <route edges="-E85 -E59 -E77 E79 E81 E58"/>
    </vehicle>
    <vehicle id="87" type="passenger" depart="3792.83">
        <route edges="E60 E66 E18 E20 E43 E39 E32 -E42"/>
    </vehicle>
    <vehicle id="88" type="passenger" depart="3795.05">
        <route edges="-E116 E65 E66 E18 E20 E43 -E38 -E95"/>
    </vehicle>
    <vehicle id="89" type="passenger" depart="3797.27">
        <route edges="-E75 E76 E77 E59 E85 E127 E128 E94 E95 E38 E39 -E104 E103"/>
    </vehicle>
    <vehicle id="90" type="passenger" depart="3799.48">
        <route edges="E38 E39 -E104 E103 -E97 E28"/>
    </vehicle>
    <vehicle id="91" type="passenger" depart="3801.70">
        <route edges="E96 -E20 E19 -E128 -E127 -E11 -E131"/>
    </vehicle>
    <vehicle id="92" type="passenger" depart="3803.92">
        <route edges="-E71 -E67 -E15 E83 -E78 -E76"/>
    </vehicle>
    <vehicle id="93" type="passenger" depart="3806.13">
        <route edges="E71 E72 -E61 -E60 -E59 -E58"/>
    </vehicle>
    <vehicle id="94" type="passenger" depart="3808.35">
        <route edges="-E16 E127 E128 -E19 -E122 -E98"/>
    </vehicle>
    <vehicle id="95" type="passenger" depart="3810.57">
        <route edges="-E74 -E80 -E79 E77 E59 E60 -E65"/>
    </vehicle>
    <vehicle id="96" type="passenger" depart="3812.78">
        <route edges="-E33 -E63 E53 -E52 E58 E59 E85"/>
    </vehicle>
    <vehicle id="97" type="passenger" depart="3815.00">
        <route edges="-E78 E77 E59 E60 E61 -E72 E73"/>
    </vehicle>
    <vehicle id="98" type="passenger" depart="3817.21">
        <route edges="E100 E101 E102 E103 -E97 -E27 -E123"/>
    </vehicle>
    <vehicle id="99" type="passenger" depart="3819.43">
        <route edges="E98 E122 -E18 -E66 -E65 E67 E68"/>
    </vehicle>
    <vehicle id="100" type="passenger" depart="3821.65">
        <route edges="E92 -E88 -E56 -E55 E58 E59 E85"/>
    </vehicle>
    <vehicle id="101" type="passenger" depart="3823.86">
        <route edges="E68 -E70 -E69 -E46 -E45 E18 E20 E43 E42 -E32"/>
    </vehicle>
    <vehicle id="102" type="passenger" depart="3826.08">
        <route edges="-E87 -E54 -E52"/>
    </vehicle>
    <vehicle id="103" type="passenger" depart="3828.30">
        <route edges="-E71 -E67 -E15 E83 E84 E85 E127 -E125 -E124"/>
    </vehicle>
    <vehicle id="104" type="passenger" depart="3830.51">
        <route edges="-E67 -E15 E83 E84 E85 E127 E128 E94 E96"/>
    </vehicle>
    <vehicle id="105" type="passenger" depart="3832.73">
        <route edges="-E39 -E38 -E130 -E129 -E35 -E92 -E57 -E55 E58"/>
    </vehicle>
    <vehicle id="106" type="passenger" depart="3834.95">
        <route edges="-E80 E81 E55 E57 E92 E35 E129 E130 -E95 -E94"/>
    </vehicle>
    <vehicle id="107" type="passenger" depart="3837.16">
        <route edges="E9 E124 E126 E130 E38 E39 -E104 E103 E98"/>
    </vehicle>
    <vehicle id="108" type="passenger" depart="3839.38">
        <route edges="E101 E102 E104 -E39 -E38 E14 E40"/>
    </vehicle>
    <vehicle id="109" type="passenger" depart="3841.60">
        <route edges="-E127 E16 E45 E46 E69 E70 -E68"/>
    </vehicle>
    <vehicle id="110" type="passenger" depart="3843.81">
        <route edges="E92 E35 E129 E130 E38 E39 -E104 E103 E98 E122"/>
    </vehicle>
    <vehicle id="111" type="passenger" depart="3846.03">
        <route edges="-E97 E28 E29 -E39 -E38 -E130 -E129 -E35 -E88 -E87 E86 -E33 E49"/>
    </vehicle>
    <vehicle id="112" type="passenger" depart="3848.25">
        <route edges="-E11 -E131 E124"/>
    </vehicle>
    <vehicle id="113" type="passenger" depart="3850.46">
        <route edges="-E9 -E91 -E57 -E55 E58 E59 -E84 -E83 E15 E67 E71"/>
    </vehicle>
    <vehicle id="114" type="passenger" depart="3852.68">
        <route edges="-E128 -E125 E126 E130 E38 E39 -E29 E90"/>
    </vehicle>
    <vehicle id="115" type="passenger" depart="3854.89">
        <route edges="-E113 -E32 -E39"/>
    </vehicle>
    <vehicle id="116" type="passenger" depart="3857.11">
        <route edges="E122 E20 E43 E39 -E104 E103 -E97 E28"/>
    </vehicle>
    <vehicle id="117" type="passenger" depart="3859.33">
        <route edges="-E30 -E45 -E16 E127 E128 -E19 -E18"/>
    </vehicle>
    <vehicle id="118" type="passenger" depart="3861.54">
        <route edges="E76 E77 -E58"/>
    </vehicle>
    <vehicle id="119" type="passenger" depart="3863.76">
        <route edges="E122 E19 -E128 -E125 E126 E130"/>
    </vehicle>
    <vehicle id="120" type="passenger" depart="3865.98">
        <route edges="-E74 -E80 E81 E55 E57 E91 E9 E124"/>
    </vehicle>
    <vehicle id="121" type="passenger" depart="3868.19">
        <route edges="-E94 -E128 -E125 -E124 -E9 -E91 -E57 -E55 E52 E54 E87"/>
    </vehicle>
    <vehicle id="122" type="passenger" depart="3870.41">
        <route edges="-E19 E20 E43 E39"/>
    </vehicle>
    <vehicle id="123" type="passenger" depart="3872.63">
        <route edges="-E30 -E45 -E16 -E11 -E131 -E9 -E91 E92 -E88 -E87"/>
    </vehicle>
    <vehicle id="124" type="passenger" depart="3874.84">
        <route edges="E18 -E122 -E30 E46 E69 E70 -E68"/>
    </vehicle>
    <vehicle id="125" type="passenger" depart="3877.06">
        <route edges="-E54 -E53 E64 -E80 E81 E52"/>
    </vehicle>
    <vehicle id="126" type="passenger" depart="3879.28">
        <route edges="-E112 E97 E100 E101"/>
    </vehicle>
    <vehicle id="127" type="passenger" depart="3881.49">
        <route edges="E98"/>
    </vehicle>
    <vehicle id="128" type="passenger" depart="3883.71">
        <route edges="-E112 E28 E29 -E39 -E38 -E130 -E129 -E35 -E88 -E87 -E54 -E52"/>
    </vehicle>
    <vehicle id="129" type="passenger" depart="3885.93">
        <route edges="-E39 -E38 -E130 -E129 -E35 -E88 -E87 E86"/>
    </vehicle>
    <vehicle id="130" type="passenger" depart="3888.14">
        <route edges="E74 E76"/>
    </vehicle>
    <vehicle id="131" type="passenger" depart="3890.36">
        <route edges="-E65 -E15 E83 E84 E85 E127 E128 -E19 -E122 -E30"/>
    </vehicle>
    <vehicle id="132" type="passenger" depart="3892.57">
        <route edges="E66 -E16 -E11 -E131 -E9 -E91 E92 E35"/>
    </vehicle>
    <vehicle id="133" type="passenger" depart="3894.79">
        <route edges="E125 E128 E94 E96"/>
    </vehicle>
    <vehicle id="134" type="passenger" depart="3897.01">
        <route edges="E14 -E119 -E118 E129 E130 E38 E39 -E104 -E102 -E101"/>
    </vehicle>
    <vehicle id="135" type="passenger" depart="3899.22">
        <route edges="E63 E33 -E86 -E54 -E52 E58 E59 E60 E61 -E72 E73 E70 -E68"/>
    </vehicle>
    <vehicle id="136" type="passenger" depart="3901.44">
        <route edges="E16 E18 E19 -E128 -E125 -E124 -E9 -E91 -E57 E56 E88"/>
    </vehicle>
    <vehicle id="137" type="passenger" depart="3903.66">
        <route edges="-E124 E131 E11 E127 E128 -E19 -E18 -E16"/>
    </vehicle>
    <vehicle id="138" type="passenger" depart="3905.87">
        <route edges="-E118 -E35 E117"/>
    </vehicle>
    <vehicle id="139" type="passenger" depart="3908.09">
        <route edges="-E42 -E43 -E20 -E18 -E16 E127"/>
    </vehicle>
    <vehicle id="140" type="passenger" depart="3910.31">
        <route edges="E33 -E86 E87 E88 E35 E129 E130 -E95 -E94 -E19 -E122 -E30 -E45"/>
    </vehicle>
    <vehicle id="141" type="passenger" depart="3912.52">
        <route edges="E129 E130 -E95 -E94 -E128 -E127 -E85 -E84 -E83 E15 E67 E71 E72 -E61"/>
    </vehicle>
    <vehicle id="142" type="passenger" depart="3914.74">
        <route edges="-E87 -E54 -E52 -E81 E80"/>
    </vehicle>
    <vehicle id="143" type="passenger" depart="3916.96">
        <route edges="E68 -E70 -E69 -E46 -E45 -E16 E127 E128 E94 E95 -E130"/>
    </vehicle>
    <vehicle id="144" type="passenger" depart="3919.17">
        <route edges="-E75 -E74 -E64"/>
    </vehicle>
    <vehicle id="145" type="passenger" depart="3921.39">
        <route edges="-E100 E98 E122 E19 -E128 -E127 -E85 -E59 -E58 E55"/>
    </vehicle>
    <vehicle id="146" type="passenger" depart="3923.61">
        <route edges="E129 E130 -E95 -E94 -E128 -E127 -E85 -E84 -E83 E15 E67 E71 E72 -E61"/>
    </vehicle>
    <vehicle id="147" type="passenger" depart="3925.82">
        <route edges="E42 -E32 -E39 -E38 -E130 -E129 -E35 E117"/>
    </vehicle>
    <vehicle id="148" type="passenger" depart="3928.04">
        <route edges="-E75 E76 E77 E59 E85 E127 E128 -E19 -E122 -E98 -E103 -E102 -E101"/>
    </vehicle>
    <vehicle id="149" type="passenger" depart="3930.25">
        <route edges="-E112 E97 E98 E122 E19 -E128 -E127 -E85 -E84 -E83 -E75 E76"/>
    </vehicle>
    <vehicle id="150" type="passenger" depart="3932.47">
        <route edges="E78 -E83 E15 E116"/>
    </vehicle>
    <vehicle id="151" type="passenger" depart="3934.69">
        <route edges="E66 E45 E30 E122"/>
    </vehicle>
    <vehicle id="152" type="passenger" depart="3936.90">
        <route edges="-E126 E125 E128 -E19"/>
    </vehicle>
    <vehicle id="153" type="passenger" depart="3939.12">
        <route edges="-E53 E64 E74 E76 E79"/>
    </vehicle>
    <vehicle id="154" type="passenger" depart="3941.34">
        <route edges="E58 E59 -E84 -E83 E15 E67 E71 E72"/>
    </vehicle>
    <vehicle id="155" type="passenger" depart="3943.55">
        <route edges="E77 E59 E60 E61 -E72 E73 -E69 -E46"/>
    </vehicle>
    <vehicle id="156" type="passenger" depart="3945.77">
        <route edges="-E33 -E63 E53 E54 E87 E88 E35 E118 E119 -E14"/>
    </vehicle>
    <vehicle id="157" type="passenger" depart="3947.99">
        <route edges="E55 E57 E91 E9 E131 E11 -E85 -E84 -E78 E77"/>
    </vehicle>
    <vehicle id="158" type="passenger" depart="3950.20">
        <route edges="-E72 -E71 -E67 -E15 E83 E84 E85 E127 -E125 E126 E130"/>
    </vehicle>
    <vehicle id="159" type="passenger" depart="3952.42">
        <route edges="-E127 -E11 -E131 -E9 -E91 E92 -E88 -E87 E86"/>
    </vehicle>
    <vehicle id="160" type="passenger" depart="3954.64">
        <route edges="E71 E72 -E61 -E60 E85 E127 E128 E94"/>
    </vehicle>
    <vehicle id="161" type="passenger" depart="3956.85">
        <route edges="E60 -E65 -E15 -E75 E76"/>
    </vehicle>
    <vehicle id="162" type="passenger" depart="3959.07">
        <route edges="-E104 E103 E98 E122 -E18 E45"/>
    </vehicle>
    <vehicle id="163" type="passenger" depart="3961.29">
        <route edges="-E57 E56 -E87 E86"/>
    </vehicle>
    <vehicle id="164" type="passenger" depart="3963.50">
        <route edges="E59 E60 E61 -E72 E73"/>
    </vehicle>
    <vehicle id="165" type="passenger" depart="3965.72">
        <route edges="E60 E66 -E16 -E11 -E131 -E9 -E91 E92 -E88 -E87 E86 -E33 -E63"/>
    </vehicle>
    <vehicle id="166" type="passenger" depart="3967.93">
        <route edges="E56 E88 -E92 E91 E9 E131 E11 E16 -E66 -E65 -E15"/>
    </vehicle>
    <vehicle id="167" type="passenger" depart="3970.15">
        <route edges="E72"/>
    </vehicle>
    <vehicle id="168" type="passenger" depart="3972.37">
        <route edges="-E28 E97 E98 E122 E19 -E128 -E125 -E124 -E9 -E91 -E57 -E55 E52 -E53 E64"/>
    </vehicle>
    <vehicle id="169" type="passenger" depart="3974.58">
        <route edges="-E81 E80 E74 E75 E15 E67 E68 -E70 -E69"/>
    </vehicle>
    <vehicle id="170" type="passenger" depart="3976.80">
        <route edges="E58 -E77 E79 E81 E55 E56 -E87 -E54"/>
    </vehicle>
    <vehicle id="171" type="passenger" depart="3979.02">
        <route edges="-E104 E103 E100 E101 E102 E104 E32 -E42"/>
    </vehicle>
    <vehicle id="172" type="passenger" depart="3981.23">
        <route edges="-E57 -E55 E58 E59 E60 E61 -E72 E73"/>
    </vehicle>
    <vehicle id="173" type="passenger" depart="3983.45">
        <route edges="E92 E35 E129 E130 -E95 -E94 -E19 -E18 -E66 -E65"/>
    </vehicle>
    <vehicle id="174" type="passenger" depart="3985.67">
        <route edges="E130 E14 -E119 -E118 -E35 -E88 -E87"/>
    </vehicle>
    <vehicle id="175" type="passenger" depart="3987.88">
        <route edges="E95 E38 E39 -E29 -E28 -E27 E114"/>
    </vehicle>
    <vehicle id="176" type="passenger" depart="3990.10">
        <route edges="E86 -E33 -E63 E53 -E52 E58 E59 E60 E66 -E16"/>
    </vehicle>
    <vehicle id="177" type="passenger" depart="3992.32">
        <route edges="E92 E35 E129 E130 -E95 E96 E43 -E38"/>
    </vehicle>
    <vehicle id="178" type="passenger" depart="3994.53">
        <route edges="E91 E9 E131 E11 -E85 -E84 -E83 E15 E67 E71 E72 -E61"/>
    </vehicle>
    <vehicle id="179" type="passenger" depart="3996.75">
        <route edges="-E118 E129 E130 E38 -E43 -E96"/>
    </vehicle>
    <vehicle id="180" type="passenger" depart="3998.97">
        <route edges="E38 -E43 -E20 -E18 -E66 E61 -E72 -E71"/>
    </vehicle>
    <vehicle id="181" type="passenger" depart="4001.18">
        <route edges="E124 E125 -E127 -E85 -E84 -E83 E15 E67 E110"/>
    </vehicle>
    <vehicle id="182" type="passenger" depart="4003.40">
        <route edges="-E68 -E67 -E15 E121"/>
    </vehicle>
    <vehicle id="183" type="passenger" depart="4005.61">
        <route edges="-E35 -E92 -E57 E56 E88 E35 E129 E130 E38"/>
    </vehicle>
    <vehicle id="184" type="passenger" depart="4007.83">
        <route edges="-E100 E98 E122 -E18 -E66 -E60 E85"/>
    </vehicle>
    <vehicle id="185" type="passenger" depart="4010.05">
        <route edges="-E96 E95 E14 E40"/>
    </vehicle>
    <vehicle id="186" type="passenger" depart="4012.26">
        <route edges="E42 -E32 -E104 E103 E98 -E30 E46 E26 E27"/>
    </vehicle>
    <vehicle id="187" type="passenger" depart="4014.48">
        <route edges="-E64 E53 E54 E87 E88 E35 E129 -E126"/>
    </vehicle>
    <vehicle id="188" type="passenger" depart="4016.70">
        <route edges="E16 -E66 -E60 -E59 -E77 -E76 -E74"/>
    </vehicle>
    <vehicle id="189" type="passenger" depart="4018.91">
        <route edges="-E54 -E52 E58 E59 E60 E61 -E72 E73 E70"/>
    </vehicle>
    <vehicle id="190" type="passenger" depart="4021.13">
        <route edges="E33 -E86 -E54 -E52 E58 E59 E60 E61 -E72 E73 -E69"/>
    </vehicle>
    <vehicle id="191" type="passenger" depart="4023.35">
        <route edges="-E53 E63 E33 -E86 E87 E88 E35 E129 -E126 -E124 -E9"/>
    </vehicle>
    <vehicle id="192" type="passenger" depart="4025.56">
        <route edges="-E71 -E67 E65 E61 -E72 E73 E70 -E68"/>
    </vehicle>
    <vehicle id="193" type="passenger" depart="4027.78">
        <route edges="-E121 E83 E84 E85 E127 E128 E94 E95 -E130 -E129 -E35 -E92"/>
    </vehicle>
    <vehicle id="194" type="passenger" depart="4030.00">
        <route edges="E86 -E33 -E63 E53 -E52 E55 E57 E91 E9 E124 E125 E128 -E19 -E122 -E98 -E97 E28"/>
    </vehicle>
    <vehicle id="195" type="passenger" depart="4032.21">
        <route edges="E78 E84 E85 -E11 -E131 -E9 -E91 E92 E35 E129"/>
    </vehicle>
    <vehicle id="196" type="passenger" depart="4034.43">
        <route edges="-E52 E58 E59 E60 -E65 E116"/>
    </vehicle>
    <vehicle id="197" type="passenger" depart="4036.65">
        <route edges="-E100 E98 E122 -E18 -E66"/>
    </vehicle>
    <vehicle id="198" type="passenger" depart="4038.86">
        <route edges="-E76 E75 E83 E84 E85 E16 E45 E30 E122"/>
    </vehicle>
    <vehicle id="199" type="passenger" depart="4041.08">
        <route edges="E14 -E119 -E118 E129 E130 E38 E39 -E104 E103 E100 E101 E102"/>
    </vehicle>
    <vehicle id="200" type="passenger" depart="4043.29">
        <route edges="-E78 -E76 -E74 -E64 E53 -E52"/>
    </vehicle>
    <vehicle id="201" type="passenger" depart="4045.51">
        <route edges="-E85 -E59 -E77 E79 E80"/>
    </vehicle>
    <vehicle id="202" type="passenger" depart="4047.73">
        <route edges="E58 -E77 E79 E81 E52 E54 E86 -E33"/>
    </vehicle>
    <vehicle id="203" type="passenger" depart="4049.94">
        <route edges="-E114 -E26 E69 -E73 -E71 E110"/>
    </vehicle>
    <vehicle id="204" type="passenger" depart="4052.16">
        <route edges="E128 -E19 -E18 -E16 -E85 -E84 -E83 -E75"/>
    </vehicle>
    <vehicle id="205" type="passenger" depart="4054.38">
        <route edges="E63 E33 -E86 E87 -E56 -E55 E52"/>
    </vehicle>
    <vehicle id="206" type="passenger" depart="4056.59">
        <route edges="E19 E94 E95 -E130 -E129 -E35 -E88 -E87 -E54"/>
    </vehicle>
    <vehicle id="207" type="passenger" depart="4058.81">
        <route edges="-E18 -E16 E127 E128 E94 E95 E38 E39 -E104"/>
    </vehicle>
    <vehicle id="208" type="passenger" depart="4061.03">
        <route edges="-E33 -E63 E53 -E52 E55 E57 E91 E9 E124 E125 E128 -E19 -E122 -E98 -E103 E104"/>
    </vehicle>
    <vehicle id="209" type="passenger" depart="4063.24">
        <route edges="E68 -E70 -E69 -E46 -E45 E18 E19 -E128 -E127"/>
    </vehicle>
    <vehicle id="210" type="passenger" depart="4065.46">
        <route edges="-E73 E72 -E61 -E60 E85 E127 E128 E94 E95 E14"/>
    </vehicle>
    <vehicle id="211" type="passenger" depart="4067.68">
        <route edges="-E16 -E11 -E131 -E9 -E91 -E57 -E55 E52 -E53 E63 E33"/>
    </vehicle>
    <vehicle id="212" type="passenger" depart="4069.89">
        <route edges="-E88 -E56 -E55 E52 E54 E87 E88 -E92 -E57"/>
    </vehicle>