<?xml version="1.0" encoding="UTF-8"?>

<!-- generated on 2026-05-13 01:31:41.883543 by Eclipse SUMO randomTrips_custom.py v1_26_0+0000-fa7df22d7f1
<configuration>
    <net-file value="map.net.xml"/>
    <output-trip-file value="temp_offpeak_car.xml"/>
    <vehicle-class value="passenger"/>
    <begin value="3600.0"/>
    <end value="11400.0"/>
    <period value="7.0"/>
</configuration>
-->

<!-- generated on 2026-05-13T01:31:41.782436+07:00 by Eclipse SUMO duarouter 1.26.0
<duarouterConfiguration xmlns:xsi="http://www.w3.org/2001/XMLSchema-instance" xsi:noNamespaceSchemaLocation="http://sumo.dlr.de/xsd/duarouterConfiguration.xsd">

    <input>
        <net-file value="map.net.xml"/>
        <route-files value="temp_offpeak_car.xml"/>
    </input>

    <output>
        <output-file value="routes.rou.xml"/>
        <alternatives-output value="NUL"/>
    </output>

    <time>
        <begin value="3600.0"/>
        <end value="11400.0"/>
    </time>

    <report>
        <no-warnings value="true"/>
        <ignore-errors value="true"/>
        <no-step-log value="true"/>
    </report>

</duarouterConfiguration>
-->

<routes xmlns:xsi="http://www.w3.org/2001/XMLSchema-instance" xsi:noNamespaceSchemaLocation="http://sumo.dlr.de/xsd/routes_file.xsd">
    <vType id="passenger" vClass="passenger"/>
    <vehicle id="0" type="passenger" depart="3600.00">
        <route edges="E16 E29 E30 E31 E32 E33 E36 E39 E40 -E41 -E7 -E1"/>
    </vehicle>
    <vehicle id="1" type="passenger" depart="3607.00">
        <route edges="-E39 -E36 E34 E35 E29 E30 E31 E32 E33 E36 E39 E40 -E41"/>
    </vehicle>
    <vehicle id="2" type="passenger" depart="3614.00">
        <route edges="E36 E39 E40 -E41 E15 E16 E29 E30 E31 E32 E33 E34 E35 -E16"/>
    </vehicle>
    <vehicle id="3" type="passenger" depart="3621.00">
        <route edges="-E46 E39 E40 -E41 -E7 -E1"/>
    </vehicle>
    <vehicle id="4" type="passenger" depart="3628.00">
        <route edges="-E37 -E15 -E7 -E1 E2"/>
    </vehicle>
    <vehicle id="5" type="passenger" depart="3635.00">
        <route edges="-E1 E1 E7 E41 -E40"/>
    </vehicle>
    <vehicle id="6" type="passenger" depart="3642.00">
        <route edges="E16 E29 E30 E31 E32 E33 E36 E39 E40 -E41 -E7 -E1 E3"/>
    </vehicle>
    <vehicle id="7" type="passenger" depart="3649.00">
        <route edges="-E37 E16 E29 E30 E31"/>
    </vehicle>
    <vehicle id="8" type="passenger" depart="3656.00">
        <route edges="E32 E33 E36 E39 E40 -E41 -E7 -E1 -E0"/>
    </vehicle>
    <vehicle id="9" type="passenger" depart="3663.00">
        <route edges="E32 E33 E36"/>
    </vehicle>
    <vehicle id="10" type="passenger" depart="3670.00">
        <route edges="-E42 -E40 -E39 -E36"/>
    </vehicle>
    <vehicle id="11" type="passenger" depart="3677.00">
        <route edges="E41 -E40 -E39 -E36 E34 E35 -E16 -E15 -E7 E12 E11"/>
    </vehicle>
    <vehicle id="12" type="passenger" depart="3684.00">
        <route edges="E34 E35 E29 E30 E31"/>
    </vehicle>
    <vehicle id="13" type="passenger" depart="3691.00">
        <route edges="E32 E33 E34 E35 -E16 E37"/>
    </vehicle>
    <vehicle id="14" type="passenger" depart="3698.00">
        <route edges="-E44 -E7 -E1 E3"/>
    </vehicle>
    <vehicle id="15" type="passenger" depart="3705.00">
        <route edges="E33 E34 E35 E29 E30 E31 E32"/>
    </vehicle>
    <vehicle id="16" type="passenger" depart="3712.00">
        <route edges="E35 E29 E30"/>
    </vehicle>
    <vehicle id="17" type="passenger" depart="3719.00">
        <route edges="E29 E30 E31 E32 E33 E36 E39 E40 -E41 -E7 -E1"/>
    </vehicle>
    <vehicle id="18" type="passenger" depart="3726.00">
        <route edges="-E37 -E15 -E7 -E1 E1"/>
    </vehicle>
    <vehicle id="19" type="passenger" depart="3733.00">
        <route edges="-E11 -E3 E1 E7 E15 E16 E29 E30 E31 E32 E33 E36 E39 E40 -E41 -E7"/>
    </vehicle>
    <vehicle id="20" type="passenger" depart="3740.00">
        <route edges="E16 E29 E30 E31 E32 E33 E36 E39 E40 -E41 -E7 E12"/>
    </vehicle>
    <vehicle id="21" type="passenger" depart="3747.00">
        <route edges="-E43 -E41"/>
    </vehicle>
    <vehicle id="22" type="passenger" depart="3754.00">
        <route edges="-E39 E46"/>
    </vehicle>
    <vehicle id="23" type="passenger" depart="3761.00">
        <route edges="E16 E29 E30 E31 E32"/>
    </vehicle>
    <vehicle id="24" type="passenger" depart="3768.00">
        <route edges="-E3 E1 E7 E15 E37"/>
    </vehicle>
    <vehicle id="25" type="passenger" depart="3775.00">
        <route edges="E7 E15 E16 E29 E30 E31 E32 E33"/>
    </vehicle>
    <vehicle id="26" type="passenger" depart="3782.00">
        <route edges="E34 E35 E29 E30 E31 E32 E33 E36 E39"/>
    </vehicle>
    <vehicle id="27" type="passenger" depart="3789.00">
        <route edges="-E37 -E15 -E7 -E1"/>
    </vehicle>
    <vehicle id="28" type="passenger" depart="3796.00">
        <route edges="-E37 E16 E29 E30 E31 E32 E33 E36 E46"/>
    </vehicle>
    <vehicle id="29" type="passenger" depart="3803.00">
        <route edges="E35 -E16 -E15 -E7 -E1 -E0 E10"/>
    </vehicle>
    <vehicle id="30" type="passenger" depart="3810.00">
        <route edges="E39 E40 -E41 E15 E16"/>
    </vehicle>
    <vehicle id="31" type="passenger" depart="3817.00">
        <route edges="-E39 -E36 E34 E35 -E16 -E15 -E7"/>
    </vehicle>
    <vehicle id="32" type="passenger" depart="3824.00">
        <route edges="-E45 E16 E29 E30 E31 E32 E33 E36 E39 E40 -E41"/>
    </vehicle>
    <vehicle id="33" type="passenger" depart="3831.00">
        <route edges="E7 E15 E16 E29 E30 E31 E32 E33 E36 E39 E40 -E41 -E7 -E1 E2"/>
    </vehicle>
    <vehicle id="34" type="passenger" depart="3838.00">
        <route edges="-E11 -E3 E1 E7 E41 -E40 -E39 -E36 E34 E35 -E16 -E15"/>
    </vehicle>
    <vehicle id="35" type="passenger" depart="3845.00">
        <route edges="-E15 E41 -E40 -E39 -E36 E34 E35 E29 E30 E31 E32"/>
    </vehicle>
    <vehicle id="36" type="passenger" depart="3852.00">
        <route edges="E32 E33 E36 E39 E40 -E41 E15"/>
    </vehicle>
    <vehicle id="37" type="passenger" depart="3859.00">
        <route edges="E7 E15 E16 E29"/>
    </vehicle>
    <vehicle id="38" type="passenger" depart="3866.00">
        <route edges="E41 E43"/>
    </vehicle>
    <vehicle id="39" type="passenger" depart="3873.00">
        <route edges="-E39 -E36 E34 E35 E29 E30 E31 E32 E33"/>
    </vehicle>
    <vehicle id="40" type="passenger" depart="3880.00">
        <route edges="-E15 -E7 -E1 E1 E7 E15"/>
    </vehicle>
    <vehicle id="41" type="passenger" depart="3887.00">
        <route edges="-E7 -E1 E1 E7"/>
    </vehicle>
    <vehicle id="42" type="passenger" depart="3894.00">
        <route edges="E0 E1 E7 E41 -E40 -E39"/>
    </vehicle>
    <vehicle id="43" type="passenger" depart="3901.00">
        <route edges="E39 E40 E43"/>
    </vehicle>
    <vehicle id="44" type="passenger" depart="3908.00">
        <route edges="-E40 -E39 -E36 E34 E35 E29 E30 E31 E32 E33"/>
    </vehicle>
    <vehicle id="45" type="passenger" depart="3915.00">
        <route edges="E15 E16 E29 E30 E31 E32 E33 E34 E35 -E16 -E15 E41 -E40 -E39 -E36"/>
    </vehicle>
    <vehicle id="46" type="passenger" depart="3922.00">
        <route edges="E30 E31 E32 E33 E36 E39 E40 -E41 -E7 -E1 E3"/>
    </vehicle>
    <vehicle id="47" type="passenger" depart="3929.00">
        <route edges="E31 E32 E33 E34 E35 E29"/>
    </vehicle>
    <vehicle id="48" type="passenger" depart="3936.00">
        <route edges="-E0 E10"/>
    </vehicle>
    <vehicle id="49" type="passenger" depart="3943.00">
        <route edges="E35 -E16 -E15 E41"/>
    </vehicle>
    <vehicle id="50" type="passenger" depart="3950.00">
        <route edges="-E41 E15 E16 E29 E30 E31 E32 E33 E34 E35 -E16 -E15"/>
    </vehicle>
    <vehicle id="51" type="passenger" depart="3957.00">
        <route edges="E35 E29 E30 E31 E32 E33 E36 E46"/>
    </vehicle>
    <vehicle id="52" type="passenger" depart="3964.00">
        <route edges="-E11 E17"/>
    </vehicle>
    <vehicle id="53" type="passenger" depart="3971.00">
        <route edges="-E10 E0 E1 E7 E41 -E40 -E39 E38"/>
    </vehicle>
    <vehicle id="54" type="passenger" depart="3978.00">
        <route edges="-E9 -E2 E3"/>
    </vehicle>
    <vehicle id="55" type="passenger" depart="3985.00">
        <route edges="-E39 -E36 E34 E35 E29 E30 E31 E32 E33 E36 E39 E40 E43"/>
    </vehicle>
    <vehicle id="56" type="passenger" depart="3992.00">
        <route edges="-E46 E39 E40 -E41"/>
    </vehicle>
    <vehicle id="57" type="passenger" depart="3999.00">
        <route edges="-E36 E34 E35 -E16 -E15 -E7 -E1 -E0 E10"/>
    </vehicle>
    <vehicle id="58" type="passenger" depart="4006.00">
        <route edges="E7 E15 E16 E29 E30 E31 E32 E33"/>
    </vehicle>
    <vehicle id="59" type="passenger" depart="4013.00">
        <route edges="-E46 -E36 E34 E35 E29"/>
    </vehicle>
    <vehicle id="60" type="passenger" depart="4020.00">
        <route edges="-E16 -E15 E41 -E40 -E39 -E36 E34 E35 E29 E30 E31 E32 E33 E36 E39 E40 -E41"/>
    </vehicle>
    <vehicle id="61" type="passenger" depart="4027.00">
        <route edges="-E42 -E40 -E39 -E36 E34 E35 E29 E30 E31"/>
    </vehicle>
    <vehicle id="62" type="passenger" depart="4034.00">
        <route edges="-E37 E16 E29 E30 E31 E32 E33 E36 E39 E40 -E41"/>
    </vehicle>
    <vehicle id="63" type="passenger" depart="4041.00">
        <route edges="-E11 -E3 E1 E7 E15 E16 E29 E30 E31 E32 E33"/>
    </vehicle>
    <vehicle id="64" type="passenger" depart="4048.00">
        <route edges="-E37 -E15 E44"/>
    </vehicle>
    <vehicle id="65" type="passenger" depart="4055.00">
        <route edges="E34 E35 -E16"/>
    </vehicle>
    <vehicle id="66" type="passenger" depart="4062.00">
        <route edges="-E38 -E36 E34"/>
    </vehicle>
    <vehicle id="67" type="passenger" depart="4069.00">
        <route edges="E40 -E41 E15 E16 E29 E30"/>
    </vehicle>
    <vehicle id="68" type="passenger" depart="4076.00">
        <route edges="-E9 E13 E7 E15 E16 E29 E30 E31 E32 E33 E36 E39"/>
    </vehicle>
    <vehicle id="69" type="passenger" depart="4083.00">
        <route edges="E32 E33 E34 E35 -E16 -E15 E41 -E40"/>
    </vehicle>
    <vehicle id="70" type="passenger" depart="4090.00">
        <route edges="-E15 -E7 -E1 E1 E7 E15"/>
    </vehicle>
    <vehicle id="71" type="passenger" depart="4097.00">
        <route edges="-E45 -E15 -E7 E12 E11"/>
    </vehicle>
    <vehicle id="72" type="passenger" depart="4104.00">
        <route edges="E35 -E16 -E15 -E7"/>
    </vehicle>
    <vehicle id="73" type="passenger" depart="4111.00">
        <route edges="-E36 E34 E35 E29 E30 E31 E32 E33 E36 E39 E40 -E41 E15 E16"/>
    </vehicle>
    <vehicle id="74" type="passenger" depart="4118.00">
        <route edges="-E38 -E36 E34 E35 -E16 E45"/>
    </vehicle>
    <vehicle id="75" type="passenger" depart="4125.00">
        <route edges="-E7 -E1 E1 E7 E41 E43"/>
    </vehicle>
    <vehicle id="76" type="passenger" depart="4132.00">
        <route edges="E7 E41"/>
    </vehicle>
    <vehicle id="77" type="passenger" depart="4139.00">
        <route edges="E41 -E40 -E39 -E36 E34 E35 -E16 E45"/>
    </vehicle>
    <vehicle id="78" type="passenger" depart="4146.00">
        <route edges="E34 E35 -E16 -E15 E41 -E40 -E39"/>
    </vehicle>
    <vehicle id="79" type="passenger" depart="4153.00">
        <route edges="-E9 E13 E7 E15 E16 E29 E30 E31 E32 E33 E36 E39 E40 -E41"/>
    </vehicle>
    <vehicle id="80" type="passenger" depart="4160.00">
        <route edges="-E45 -E15"/>
    </vehicle>
    <vehicle id="81" type="passenger" depart="4167.00">
        <route edges="-E44 -E7 -E1 E2 E9"/>
    </vehicle>
    <vehicle id="82" type="passenger" depart="4174.00">
        <route edges="-E39 -E36 E34 E35 E29 E30 E31 E32 E33 E36 E39"/>
    </vehicle>
    <vehicle id="83" type="passenger" depart="4181.00">
        <route edges="-E7 -E1 E1 E7 E15"/>
    </vehicle>
    <vehicle id="84" type="passenger" depart="4188.00">
        <route edges="E41 -E40 -E39 -E36 E34 E35 -E16 -E15 -E7 -E1 E2 E9"/>
    </vehicle>
    <vehicle id="85" type="passenger" depart="4195.00">
        <route edges="-E2 E1"/>
    </vehicle>
    <vehicle id="86" type="passenger" depart="4202.00">
        <route edges="E41 -E40 -E39 -E36 E34 E35 E29 E30"/>
    </vehicle>
    <vehicle id="87" type="passenger" depart="4209.00">
        <route edges="-E10 E0 E1 E7 E15 E16 E29 E30 E31"/>
    </vehicle>
    <vehicle id="88" type="passenger" depart="4216.00">
        <route edges="E0 E1 E7 E41 E42"/>
    </vehicle>
    <vehicle id="89" type="passenger" depart="4223.00">
        <route edges="-E2 E1 E7"/>
    </vehicle>
    <vehicle id="90" type="passenger" depart="4230.00">
        <route edges="-E11 -E3 E1 E7 E41 -E40 -E39"/>
    </vehicle>
    <vehicle id="91" type="passenger" depart="4237.00">
        <route edges="E36 E39 E40 -E41 -E7"/>
    </vehicle>
    <vehicle id="92" type="passenger" depart="4244.00">
        <route edges="-E46 -E36 E34 E35 E29 E30 E31"/>
    </vehicle>
    <vehicle id="93" type="passenger" depart="4251.00">
        <route edges="E1 E7 E41 -E40 -E39 E46"/>
    </vehicle>
    <vehicle id="94" type="passenger" depart="4258.00">
        <route edges="-E36 E34 E35 E29 E30 E31 E32 E33 E36"/>
    </vehicle>
    <vehicle id="95" type="passenger" depart="4265.00">
        <route edges="-E41 E15 E16 E29 E30 E31 E32 E33 E36 E38"/>
    </vehicle>
    <vehicle id="96" type="passenger" depart="4272.00">
        <route edges="-E11 -E3 E1 E7 E15 E16"/>
    </vehicle>
    <vehicle id="97" type="passenger" depart="4279.00">
        <route edges="E7 E15 E16 E29 E30 E31 E32 E33 E36 E39 E40 -E41 -E7 -E1 E2 E9"/>
    </vehicle>
    <vehicle id="98" type="passenger" depart="4286.00">
        <route edges="-E11 -E3 E1 E7 E15 E16 E29 E30 E31 E32 E33 E36 E39 E40 -E41"/>
    </vehicle>
    <vehicle id="99" type="passenger" depart="4293.00">
        <route edges="-E39 E46"/>
    </vehicle>
    <vehicle id="100" type="passenger" depart="4300.00">
        <route edges="E35 E29 E30 E31 E32 E33 E36 E39 E40 E43"/>
    </vehicle>
    <vehicle id="101" type="passenger" depart="4307.00">
        <route edges="-E43 -E40 -E39 -E36"/>
    </vehicle>
    <vehicle id="102" type="passenger" depart="4314.00">
        <route edges="E33 E36"/>
    </vehicle>
    <vehicle id="103" type="passenger" depart="4321.00">
        <route edges="E15 E16 E29 E30 E31 E32 E33 E36 E39 E40 -E41 -E7 -E1 E2 E9"/>
    </vehicle>
    <vehicle id="104" type="passenger" depart="4328.00">
        <route edges="E33 E36 E39 E40 -E41 -E7 -E1 E1"/>
    </vehicle>
    <vehicle id="105" type="passenger" depart="4335.00">
        <route edges="-E15 -E7 -E1 E3"/>
    </vehicle>
    <vehicle id="106" type="passenger" depart="4342.00">
        <route edges="-E39 -E36 E34 E35 E29 E30 E31 E32"/>
    </vehicle>
    <vehicle id="107" type="passenger" depart="4349.00">
        <route edges="E29 E30 E31 E32 E33 E34 E35 -E16 -E15 E41 -E40"/>
    </vehicle>
    <vehicle id="108" type="passenger" depart="4356.00">
        <route edges="E0 E1 E7 E44"/>
    </vehicle>
    <vehicle id="109" type="passenger" depart="4363.00">
        <route edges="E34 E35 -E16"/>
    </vehicle>
    <vehicle id="110" type="passenger" depart="4370.00">
        <route edges="E3"/>
    </vehicle>
    <vehicle id="111" type="passenger" depart="4377.00">
        <route edges="-E46 E39 E40 -E41 -E7 -E1 -E0"/>
    </vehicle>
    <vehicle id="112" type="passenger" depart="4384.00">
        <route edges="-E11 -E3 E1 E7 E41 E43"/>
    </vehicle>
    <vehicle id="113" type="passenger" depart="4391.00">
        <route edges="E36 E39 E40 -E41 -E7 -E1 E3"/>
    </vehicle>
    <vehicle id="114" type="passenger" depart="4398.00">
        <route edges="E33 E34 E35 E29 E30 E31"/>
    </vehicle>
    <vehicle id="115" type="passenger" depart="4405.00">
        <route edges="-E41 E44"/>
    </vehicle>
    <vehicle id="116" type="passenger" depart="4412.00">
        <route edges="E32 E33 E36 E39 E40 E43"/>
    </vehicle>
    <vehicle id="117" type="passenger" depart="4419.00">
        <route edges="E36 E39 E40 -E41"/>
    </vehicle>
    <vehicle id="118" type="passenger" depart="4426.00">
        <route edges="E31 E32 E33 E36 E39 E40 -E41 E44"/>
    </vehicle>
    <vehicle id="119" type="passenger" depart="4433.00">
        <route edges="-E45 E16 E29 E30 E31 E32"/>
    </vehicle>
    <vehicle id="120" type="passenger" depart="4440.00">
        <route edges="-E2 E1 E7 E15 E45"/>
    </vehicle>
    <vehicle id="121" type="passenger" depart="4447.00">
        <route edges="E35 -E16 -E15 -E7 -E1 E1 E7"/>
    </vehicle>
    <vehicle id="122" type="passenger" depart="4454.00">
        <route edges="E32 E33 E36 E39 E40 E43"/>
    </vehicle>
    <vehicle id="123" type="passenger" depart="4461.00">
        <route edges="-E1 E1 E7 E15 E37"/>
    </vehicle>
    <vehicle id="124" type="passenger" depart="4468.00">
        <route edges="-E42 -E40 -E39 E46"/>
    </vehicle>
    <vehicle id="125" type="passenger" depart="4475.00">
        <route edges="E32 E33 E36 E39 E40 E43"/>
    </vehicle>
    <vehicle id="126" type="passenger" depart="4482.00">
        <route edges="E35 E29 E30 E31 E32 E33 E36 E39 E40 E42"/>
    </vehicle>
    <vehicle id="127" type="passenger" depart="4489.00">
        <route edges="-E37 -E15 E41"/>
    </vehicle>
    <vehicle id="128" type="passenger" depart="4496.00">
        <route edges="-E7 -E1 -E0 E10"/>
    </vehicle>
    <vehicle id="129" type="passenger" depart="4503.00">
        <route edges="E32 E33 E36 E39 E40 -E41"/>
    </vehicle>
    <vehicle id="130" type="passenger" depart="4510.00">
        <route edges="-E1 E1 E7 E41 -E40"/>
    </vehicle>
    <vehicle id="131" type="passenger" depart="4517.00">
        <route edges="-E42 E43"/>
    </vehicle>
    <vehicle id="132" type="passenger" depart="4524.00">
        <route edges="E41 -E40 -E39 -E36 E34 E35 -E16 -E15 -E7 -E1 E1"/>
    </vehicle>
    <vehicle id="133" type="passenger" depart="4531.00">
        <route edges="E7 E15 E16 E29 E30 E31 E32 E33 E36 E39 E40 -E41 -E7 -E1 E3"/>
    </vehicle>
    <vehicle id="134" type="passenger" depart="4538.00">
        <route edges="E41 -E40 -E39"/>
    </vehicle>
    <vehicle id="135" type="passenger" depart="4545.00">
        <route edges="-E15 -E7 -E1 E1 E7 E15"/>
    </vehicle>
    <vehicle id="136" type="passenger" depart="4552.00">
        <route edges="E15 E16 E29 E30 E31 E32 E33 E36 E39 E40 -E41 -E7 -E1 E2"/>
    </vehicle>
    <vehicle id="137" type="passenger" depart="4559.00">
        <route edges="-E44 E15 E16 E29 E30"/>
    </vehicle>
    <vehicle id="138" type="passenger" depart="4566.00">
        <route edges="-E38 -E36 E34 E35 E29 E30 E31 E32 E33 E36"/>
    </vehicle>
    <vehicle id="139" type="passenger" depart="4573.00">
        <route edges="-E43 -E40 -E39 -E36 E34 E35 -E16"/>
    </vehicle>
    <vehicle id="140" type="passenger" depart="4580.00">
        <route edges="-E41 -E7 -E1 E1 E7 E41 E42"/>
    </vehicle>
    <vehicle id="141" type="passenger" depart="4587.00">
        <route edges="E29 E30 E31 E32 E33 E36 E39 E40 -E41 -E7 -E1 E1"/>
    </vehicle>
    <vehicle id="142" type="passenger" depart="4594.00">
        <route edges="-E45 -E15 -E7 -E1 E1"/>
    </vehicle>
    <vehicle id="143" type="passenger" depart="4601.00">
        <route edges="-E16 -E15 -E7 -E1 E1 E7 E15"/>
    </vehicle>
    <vehicle id="144" type="passenger" depart="4608.00">
        <route edges="E40 -E41 E15 E16 E29 E30 E31 E32 E33 E34 E35"/>
    </vehicle>
    <vehicle id="145" type="passenger" depart="4615.00">
        <route edges="E36 E39 E40 -E41 E15 E16 E29 E30 E31 E32"/>
    </vehicle>
    <vehicle id="146" type="passenger" depart="4622.00">
        <route edges="-E40 -E39 -E36 E34 E35 -E16 -E15 -E7 -E1 E3"/>
    </vehicle>
    <vehicle id="147" type="passenger" depart="4629.00">
        <route edges="-E46 -E36 E34 E35 E29 E30"/>
    </vehicle>
    <vehicle id="148" type="passenger" depart="4636.00">
        <route edges="-E7 -E1 E1 E7 E15 E16 E29 E30 E31 E32 E33 E36 E39 E40 -E41"/>
    </vehicle>
    <vehicle id="149" type="passenger" depart="4643.00">
        <route edges="-E9 E13 E7 E44"/>
    </vehicle>
    <vehicle id="150" type="passenger" depart="4650.00">
        <route edges="E32 E33 E34 E35 -E16 -E15 E41 -E40 -E39"/>
    </vehicle>
    <vehicle id="151" type="passenger" depart="4657.00">
        <route edges="-E11 -E3 E1 E7 E15 E16 E29"/>
    </vehicle>
    <vehicle id="152" type="passenger" depart="4664.00">
        <route edges="E16 E29 E30 E31 E32 E33 E36 E39 E40 -E41 -E7 E12 E11"/>
    </vehicle>
    <vehicle id="153" type="passenger" depart="4671.00">
        <route edges="E33 E36 E38"/>
    </vehicle>
    <vehicle id="154" type="passenger" depart="4678.00">
        <route edges="-E36 E34 E35 -E16 -E15 -E7 -E1"/>
    </vehicle>
    <vehicle id="155" type="passenger" depart="4685.00">
        <route edges="E34 E35 -E16"/>
    </vehicle>
    <vehicle id="156" type="passenger" depart="4692.00">
        <route edges="-E45 E16 E29 E30 E31 E32 E33"/>
    </vehicle>
    <vehicle id="157" type="passenger" depart="4699.00">
        <route edges="-E36 E34 E35"/>
    </vehicle>
    <vehicle id="158" type="passenger" depart="4706.00">
        <route edges="E0 E1 E7 E15 E16 E29 E30 E31 E32 E33 E36 E39 E40 -E41 -E7"/>
    </vehicle>
    <vehicle id="159" type="passenger" depart="4713.00">
        <route edges="E30 E31 E32 E33 E36 E39"/>
    </vehicle>
    <vehicle id="160" type="passenger" depart="4720.00">
        <route edges="-E15 -E7 -E1 E1 E7 E15"/>
    </vehicle>
    <vehicle id="161" type="passenger" depart="4727.00">
        <route edges="-E3 E1 E7"/>
    </vehicle>
    <vehicle id="162" type="passenger" depart="4734.00">
        <route edges="E1 E7 E41 -E40 -E39 -E36 E34 E35 -E16 -E15"/>
    </vehicle>
    <vehicle id="163" type="passenger" depart="4741.00">
        <route edges="-E38 E39 E40 E42"/>
    </vehicle>
    <vehicle id="164" type="passenger" depart="4748.00">
        <route edges="-E7 -E1 E1 E7 E15 E16 E29 E30 E31 E32 E33 E36 E39 E40"/>
    </vehicle>
    <vehicle id="165" type="passenger" depart="4755.00">
        <route edges="E36 E39 E40 -E41 E15 E16 E29 E30 E31 E32"/>
    </vehicle>
    <vehicle id="166" type="passenger" depart="4762.00">
        <route edges="E29 E30 E31 E32 E33 E36 E39 E40 -E41 -E7 -E1 E2"/>
    </vehicle>
    <vehicle id="167" type="passenger" depart="4769.00">
        <route edges="E33 E36 E39 E40 -E41 -E7 -E1 E3"/>
    </vehicle>
    <vehicle id="168" type="passenger" depart="4776.00">
        <route edges="E36 E39 E40 -E41 E15 E37"/>
    </vehicle>
    <vehicle id="169" type="passenger" depart="4783.00">
        <route edges="-E38 -E36 E34 E35 E29 E30 E31 E32 E33"/>
    </vehicle>
    <vehicle id="170" type="passenger" depart="4790.00">
        <route edges="E30 E31 E32 E33 E34 E35 E29"/>
    </vehicle>
    <vehicle id="171" type="passenger" depart="4797.00">
        <route edges="-E11 -E3 E1"/>
    </vehicle>
    <vehicle id="172" type="passenger" depart="4804.00">
        <route edges="-E39 -E36 E34 E35 -E16 -E15 -E7 -E1 -E0 E10"/>
    </vehicle>
    <vehicle id="173" type="passenger" depart="4811.00">
        <route edges="-E37 E16 E29 E30 E31 E32 E33 E34 E35"/>
    </vehicle>
    <vehicle id="174" type="passenger" depart="4818.00">
        <route edges="E29 E30 E31 E32 E33 E34 E35 -E16 -E15"/>
    </vehicle>
    <vehicle id="175" type="passenger" depart="4825.00">
        <route edges="-E45 -E15 -E7 -E1 E3"/>
    </vehicle>
    <vehicle id="176" type="passenger" depart="4832.00">
        <route edges="-E45 -E15 E41 -E40"/>
    </vehicle>
    <vehicle id="177" type="passenger" depart="4839.00">
        <route edges="-E46 E39 E40 -E41 E44"/>
    </vehicle>
    <vehicle id="178" type="passenger" depart="4846.00">
        <route edges="E34 E35 E29 E30 E31 E32 E33 E36 E38"/>
    </vehicle>
    <vehicle id="179" type="passenger" depart="4853.00">
        <route edges="-E44 -E7 -E1 -E0"/>
    </vehicle>
    <vehicle id="180" type="passenger" depart="4860.00">
        <route edges="-E43 -E40 -E39 E38"/>
    </vehicle>
    <vehicle id="181" type="passenger" depart="4867.00">
        <route edges="E34 E35 E29 E30 E31 E32 E33 E36 E46"/>
    </vehicle>
    <vehicle id="182" type="passenger" depart="4874.00">
        <route edges="-E46 E38"/>
    </vehicle>
    <vehicle id="183" type="passenger" depart="4881.00">
        <route edges="-E37 E16 E29 E30 E31 E32 E33 E36 E39 E40 -E41"/>
    </vehicle>
    <vehicle id="184" type="passenger" depart="4888.00">
        <route edges="-E46 E39 E40 -E41 -E7 -E1"/>
    </vehicle>
    <vehicle id="185" type="passenger" depart="4895.00">
        <route edges="-E42 -E40 -E39 -E36 E34 E35"/>
    </vehicle>
    <vehicle id="186" type="passenger" depart="4902.00">
        <route edges="-E45 -E15 E41 -E40 -E39"/>
    </vehicle>
    <vehicle id="187" type="passenger" depart="4909.00">
        <route edges="E15 E16 E29 E30 E31 E32 E33 E36 E39 E40 -E41 -E7 -E1"/>
    </vehicle>
    <vehicle id="188" type="passenger" depart="4916.00">
        <route edges="-E44 E15 E16 E29 E30"/>
    </vehicle>
    <vehicle id="189" type="passenger" depart="4923.00">
        <route edges="-E1 E1 E7 E15 E16 E29 E30 E31 E32 E33"/>
    </vehicle>
    <vehicle id="190" type="passenger" depart="4930.00">
        <route edges="-E16 -E15 -E7 -E1 E1 E7 E15 E16"/>
    </vehicle>
    <vehicle id="191" type="passenger" depart="4937.00">
        <route edges="-E37 -E15 -E7 E12 E11"/>
    </vehicle>
    <vehicle id="192" type="passenger" depart="4944.00">
        <route edges="E30 E31 E32 E33 E34 E35 -E16 -E15 E41"/>
    </vehicle>
    <vehicle id="193" type="passenger" depart="4951.00">
        <route edges="-E38 -E36 E34 E35 -E16"/>
    </vehicle>
    <vehicle id="194" type="passenger" depart="4958.00">
        <route edges="E7 E15 E16 E29 E30 E31 E32 E33 E36 E39 E40 -E41 -E7 E12"/>
    </vehicle>
    <vehicle id="195" type="passenger" depart="4965.00">
        <route edges="E16 E29 E30 E31 E32 E33 E36 E39"/>
    </vehicle>
    <vehicle id="196" type="passenger" depart="4972.00">
        <route edges="E40 -E41 -E7 -E1 E1 E7 E41 -E40"/>
    </vehicle>
    <vehicle id="197" type="passenger" depart="4979.00">
        <route edges="-E16 -E15 E41 -E40 -E39 -E36 E34"/>
    </vehicle>
    <vehicle id="198" type="passenger" depart="4986.00">
        <route edges="E13 E7 E15 E16 E29 E30 E31 E32 E33 E36 E39 E40 -E41"/>
    </vehicle>
    <vehicle id="199" type="passenger" depart="4993.00">
        <route edges="E29 E30 E31 E32 E33 E36 E38"/>
    </vehicle>
    <vehicle id="200" type="passenger" depart="5000.00">
        <route edges="-E3 E1 E7 E15 E16 E29 E30 E31 E32"/>
    </vehicle>
    <vehicle id="201" type="passenger" depart="5007.00">
        <route edges="E33 E36 E39 E40 -E41 -E7 -E1 E1 E7"/>
    </vehicle>
    <vehicle id="202" type="passenger" depart="5014.00">
        <route edges="-E15 -E7 -E1"/>
    </vehicle>
    <vehicle id="203" type="passenger" depart="5021.00">
        <route edges="-E41 E15 E16 E29 E30 E31 E32 E33 E34 E35"/>
    </vehicle>
    <vehicle id="204" type="passenger" depart="5028.00">
        <route edges="E29 E30 E31 E32 E33 E34 E35 -E16"/>
    </vehicle>
    <vehicle id="205" type="passenger" depart="5035.00">
        <route edges="-E15 E41 -E40 -E39 -E36 E34 E35 E29 E30 E31 E32 E33 E36 E39"/>
    </vehicle>
    <vehicle id="206" type="passenger" depart="5042.00">
        <route edges="E34 E35 E29 E30 E31"/>
    </vehicle>
    <vehicle id="207" type="passenger" depart="5049.00">
        <route edges="-E16 -E15 -E7 -E1 E2 E9"/>
    </vehicle>
    <vehicle id="208" type="passenger" depart="5056.00">
        <route edges="E31 E32 E33 E36 E39 E40 -E41 -E7 E12 E11"/>
    </vehicle>
    <vehicle id="209" type="passenger" depart="5063.00">
        <route edges="-E46 E39 E40 -E41 -E7 E12"/>
    </vehicle>
    <vehicle id="210" type="passenger" depart="5070.00">
        <route edges="E0 E3 E11"/>
    </vehicle>
    <vehicle id="211" type="passenger" depart="5077.00">
        <route edges="E34 E35 -E16 -E15 E41"/>
    </vehicle>
    <vehicle id="212" type="passenger" depart="5084.00">
        <route edges="-E15 -E7 -E1 E1 E7"/>
    </vehicle>
    <vehicle id="213" type="passenger" depart="5091.00">
        <route edges="E16 E29 E30 E31 E32 E33 E34 E35 -E16 -E15 E41"/>
    </vehicle>
    <vehicle id="214" type="passenger" depart="5098.00">
        <route edges="E29 E30 E31 E32 E33 E36 E39 E40 -E41 E15"/>
    </vehicle>
    <vehicle id="215" type="passenger" depart="5105.00">
        <route edges="-E39 -E36 E34 E35 E29 E30 E31 E32 E33 E36 E39 E40"/>
    </vehicle>
    <vehicle id="216" type="passenger" depart="5112.00">
        <route edges="-E46 -E36 E34 E35 -E16 E37"/>
    </vehicle>
    <vehicle id="217" type="passenger" depart="5119.00">
        <route edges="-E39 -E36 E34 E35 E29 E30 E31 E32 E33 E36 E39 E40 E42"/>
    </vehicle>
    <vehicle id="218" type="passenger" depart="5126.00">
        <route edges="E33 E34 E35 -E16"/>
    </vehicle>
    <vehicle id="219" type="passenger" depart="5133.00">
        <route edges="E35 -E16 -E15 -E7"/>
    </vehicle>
    <vehicle id="220" type="passenger" depart="5140.00">
        <route edges="-E7 -E1 E1 E7 E15 E16 E29 E30 E31 E32"/>
    </vehicle>
    <vehicle id="221" type="passenger" depart="5147.00">
        <route edges="-E44 -E7 -E1"/>
    </vehicle>
    <vehicle id="222" type="passenger" depart="5154.00">
        <route edges="E34 E35 -E16 -E15 E41 -E40 -E39"/>
    </vehicle>
    <vehicle id="223" type="passenger" depart="5161.00">
        <route edges="-E37 E16 E29 E30 E31 E32 E33 E36 E39 E40"/>
    </vehicle>
    <vehicle id="224" type="passenger" depart="5168.00">
        <route edges="-E42 E43"/>
    </vehicle>
    <vehicle id="225" type="passenger" depart="5175.00">
        <route edges="-E11 -E3 E1 E7 E15 E16 E29 E30 E31 E32 E33 E36"/>
    </vehicle>