<?xml version="1.0" encoding="UTF-8"?>

<!-- generated on 2026-05-17 21:40:21.474066 by Eclipse SUMO randomTrips_custom.py v1_26_0+0000-fa7df22d7f1
<configuration>
    <net-file value="map.net.xml"/>
    <output-trip-file value="temp_offpeak_car.xml"/>
    <vehicle-class value="passenger"/>
    <begin value="3600.0"/>
    <end value="11400.0"/>
    <period value="6.0"/>
</configuration>
-->

<!-- generated on 2026-05-17T21:40:21.344382+07:00 by Eclipse SUMO duarouter 1.26.0
<duarouterConfiguration xmlns:xsi="http://www.w3.org/2001/XMLSchema-instance" xsi:noNamespaceSchemaLocation="http://sumo.dlr.de/xsd/duarouterConfiguration.xsd">

    <input>
        <net-file value="map.net.xml"/>
        <route-files value="temp_offpeak_car.xml"/>
    </input>

    <output>
        <output-file value="routes.rou.xml"/>
        <alternatives-output value="NUL"/>
    </output>

    <time>
        <begin value="3600.0"/>
        <end value="11400.0"/>
    </time>

    <report>
        <no-warnings value="true"/>
        <ignore-errors value="true"/>
        <no-step-log value="true"/>
    </report>

</duarouterConfiguration>
-->

<routes xmlns:xsi="http://www.w3.org/2001/XMLSchema-instance" xsi:noNamespaceSchemaLocation="http://sumo.dlr.de/xsd/routes_file.xsd">
    <vType id="passenger" vClass="passenger"/>
    <vehicle id="0" type="passenger" depart="3600.00">
        <route edges="E16 E29 E30 E31 E32 E33 E36 E39 E40 -E41 -E7 -E1"/>
    </vehicle>
    <vehicle id="1" type="passenger" depart="3606.00">
        <route edges="-E39 -E36 E34 E35 E29 E30 E31 E32 E33 E36 E39 E40 -E41"/>
    </vehicle>
    <vehicle id="2" type="passenger" depart="3612.00">
        <route edges="E36 E39 E40 -E41 E15 E16 E29 E30 E31 E32 E33 E34 E35 -E16"/>
    </vehicle>
    <vehicle id="3" type="passenger" depart="3618.00">
        <route edges="-E46 E39 E40 -E41 -E7 -E1"/>
    </vehicle>
    <vehicle id="4" type="passenger" depart="3624.00">
        <route edges="-E37 -E15 -E7 -E1 E2"/>
    </vehicle>
    <vehicle id="5" type="passenger" depart="3630.00">
        <route edges="-E1 E1 E7 E41 -E40"/>
    </vehicle>
    <vehicle id="6" type="passenger" depart="3636.00">
        <route edges="E16 E29 E30 E31 E32 E33 E36 E39 E40 -E41 -E7 -E1 E3"/>
    </vehicle>
    <vehicle id="7" type="passenger" depart="3642.00">
        <route edges="-E37 E16 E29 E30 E31"/>
    </vehicle>
    <vehicle id="8" type="passenger" depart="3648.00">
        <route edges="E32 E33 E36 E39 E40 -E41 -E7 -E1 -E0"/>
    </vehicle>
    <vehicle id="9" type="passenger" depart="3654.00">
        <route edges="E32 E33 E36"/>
    </vehicle>
    <vehicle id="10" type="passenger" depart="3660.00">
        <route edges="-E42 -E40 -E39 -E36"/>
    </vehicle>
    <vehicle id="11" type="passenger" depart="3666.00">
        <route edges="E41 -E40 -E39 -E36 E34 E35 -E16 -E15 -E7 E12 E11"/>
    </vehicle>
    <vehicle id="12" type="passenger" depart="3672.00">
        <route edges="E34 E35 E29 E30 E31"/>
    </vehicle>
    <vehicle id="13" type="passenger" depart="3678.00">
        <route edges="E32 E33 E34 E35 -E16 E37"/>
    </vehicle>
    <vehicle id="14" type="passenger" depart="3684.00">
        <route edges="-E44 -E7 -E1 E3"/>
    </vehicle>
    <vehicle id="15" type="passenger" depart="3690.00">
        <route edges="E33 E34 E35 E29 E30 E31 E32"/>
    </vehicle>
    <vehicle id="16" type="passenger" depart="3696.00">
        <route edges="E35 E29 E30"/>
    </vehicle>
    <vehicle id="17" type="passenger" depart="3702.00">
        <route edges="E29 E30 E31 E32 E33 E36 E39 E40 -E41 -E7 -E1"/>
    </vehicle>
    <vehicle id="18" type="passenger" depart="3708.00">
        <route edges="-E37 -E15 -E7 -E1 E1"/>
    </vehicle>
    <vehicle id="19" type="passenger" depart="3714.00">
        <route edges="-E11 -E3 E1 E7 E15 E16 E29 E30 E31 E32 E33 E36 E39 E40 -E41 -E7"/>
    </vehicle>
    <vehicle id="20" type="passenger" depart="3720.00">
        <route edges="E16 E29 E30 E31 E32 E33 E36 E39 E40 -E41 -E7 E12"/>
    </vehicle>
    <vehicle id="21" type="passenger" depart="3726.00">
        <route edges="-E43 -E41"/>
    </vehicle>
    <vehicle id="22" type="passenger" depart="3732.00">
        <route edges="-E39 E46"/>
    </vehicle>
    <vehicle id="23" type="passenger" depart="3738.00">
        <route edges="E16 E29 E30 E31 E32"/>
    </vehicle>
    <vehicle id="24" type="passenger" depart="3744.00">
        <route edges="-E3 E1 E7 E15 E37"/>
    </vehicle>
    <vehicle id="25" type="passenger" depart="3750.00">
        <route edges="E7 E15 E16 E29 E30 E31 E32 E33"/>
    </vehicle>
    <vehicle id="26" type="passenger" depart="3756.00">
        <route edges="E34 E35 E29 E30 E31 E32 E33 E36 E39"/>
    </vehicle>
    <vehicle id="27" type="passenger" depart="3762.00">
        <route edges="-E37 -E15 -E7 -E1"/>
    </vehicle>
    <vehicle id="28" type="passenger" depart="3768.00">
        <route edges="-E37 E16 E29 E30 E31 E32 E33 E36 E46"/>
    </vehicle>
    <vehicle id="29" type="passenger" depart="3774.00">
        <route edges="E35 -E16 -E15 -E7 -E1 -E0 E10"/>
    </vehicle>
    <vehicle id="30" type="passenger" depart="3780.00">
        <route edges="E39 E40 -E41 E15 E16"/>
    </vehicle>
    <vehicle id="31" type="passenger" depart="3786.00">
        <route edges="-E39 -E36 E34 E35 -E16 -E15 -E7"/>
    </vehicle>
    <vehicle id="32" type="passenger" depart="3792.00">
        <route edges="-E45 E16 E29 E30 E31 E32 E33 E36 E39 E40 -E41"/>
    </vehicle>
    <vehicle id="33" type="passenger" depart="3798.00">
        <route edges="E7 E15 E16 E29 E30 E31 E32 E33 E36 E39 E40 -E41 -E7 -E1 E2"/>
    </vehicle>
    <vehicle id="34" type="passenger" depart="3804.00">
        <route edges="-E11 -E3 E1 E7 E41 -E40 -E39 -E36 E34 E35 -E16 -E15"/>
    </vehicle>
    <vehicle id="35" type="passenger" depart="3810.00">
        <route edges="-E15 E41 -E40 -E39 -E36 E34 E35 E29 E30 E31 E32"/>
    </vehicle>
    <vehicle id="36" type="passenger" depart="3816.00">
        <route edges="E32 E33 E36 E39 E40 -E41 E15"/>
    </vehicle>
    <vehicle id="37" type="passenger" depart="3822.00">
        <route edges="E7 E15 E16 E29"/>
    </vehicle>
    <vehicle id="38" type="passenger" depart="3828.00">
        <route edges="E41 E43"/>
    </vehicle>
    <vehicle id="39" type="passenger" depart="3834.00">
        <route edges="-E39 -E36 E34 E35 E29 E30 E31 E32 E33"/>
    </vehicle>
    <vehicle id="40" type="passenger" depart="3840.00">
        <route edges="-E15 -E7 -E1 E1 E7 E15"/>
    </vehicle>
    <vehicle id="41" type="passenger" depart="3846.00">
        <route edges="-E7 -E1 E1 E7"/>
    </vehicle>
    <vehicle id="42" type="passenger" depart="3852.00">
        <route edges="E0 E1 E7 E41 -E40 -E39"/>
    </vehicle>
    <vehicle id="43" type="passenger" depart="3858.00">
        <route edges="E39 E40 E43"/>
    </vehicle>
    <vehicle id="44" type="passenger" depart="3864.00">
        <route edges="-E40 -E39 -E36 E34 E35 E29 E30 E31 E32 E33"/>
    </vehicle>
    <vehicle id="45" type="passenger" depart="3870.00">
        <route edges="E15 E16 E29 E30 E31 E32 E33 E34 E35 -E16 -E15 E41 -E40 -E39 -E36"/>
    </vehicle>
    <vehicle id="46" type="passenger" depart="3876.00">
        <route edges="E30 E31 E32 E33 E36 E39 E40 -E41 -E7 -E1 E3"/>
    </vehicle>
    <vehicle id="47" type="passenger" depart="3882.00">
        <route edges="E31 E32 E33 E34 E35 E29"/>
    </vehicle>
    <vehicle id="48" type="passenger" depart="3888.00">
        <route edges="-E0 E10"/>
    </vehicle>
    <vehicle id="49" type="passenger" depart="3894.00">
        <route edges="E35 -E16 -E15 E41"/>
    </vehicle>
    <vehicle id="50" type="passenger" depart="3900.00">
        <route edges="-E41 E15 E16 E29 E30 E31 E32 E33 E34 E35 -E16 -E15"/>
    </vehicle>
    <vehicle id="51" type="passenger" depart="3906.00">
        <route edges="E35 E29 E30 E31 E32 E33 E36 E46"/>
    </vehicle>
    <vehicle id="52" type="passenger" depart="3912.00">
        <route edges="-E11 E17"/>
    </vehicle>
    <vehicle id="53" type="passenger" depart="3918.00">
        <route edges="-E10 E0 E1 E7 E41 -E40 -E39 E38"/>
    </vehicle>
    <vehicle id="54" type="passenger" depart="3924.00">
        <route edges="-E9 -E2 E3"/>
    </vehicle>
    <vehicle id="55" type="passenger" depart="3930.00">
        <route edges="-E39 -E36 E34 E35 E29 E30 E31 E32 E33 E36 E39 E40 E43"/>
    </vehicle>
    <vehicle id="56" type="passenger" depart="3936.00">
        <route edges="-E46 E39 E40 -E41"/>
    </vehicle>
    <vehicle id="57" type="passenger" depart="3942.00">
        <route edges="-E36 E34 E35 -E16 -E15 -E7 -E1 -E0 E10"/>
    </vehicle>
    <vehicle id="58" type="passenger" depart="3948.00">
        <route edges="E7 E15 E16 E29 E30 E31 E32 E33"/>
    </vehicle>
    <vehicle id="59" type="passenger" depart="3954.00">
        <route edges="-E46 -E36 E34 E35 E29"/>
    </vehicle>
    <vehicle id="60" type="passenger" depart="3960.00">
        <route edges="-E16 -E15 E41 -E40 -E39 -E36 E34 E35 E29 E30 E31 E32 E33 E36 E39 E40 -E41"/>
    </vehicle>
    <vehicle id="61" type="passenger" depart="3966.00">
        <route edges="-E42 -E40 -E39 -E36 E34 E35 E29 E30 E31"/>
    </vehicle>
    <vehicle id="62" type="passenger" depart="3972.00">
        <route edges="-E37 E16 E29 E30 E31 E32 E33 E36 E39 E40 -E41"/>
    </vehicle>
    <vehicle id="63" type="passenger" depart="3978.00">
        <route edges="-E11 -E3 E1 E7 E15 E16 E29 E30 E31 E32 E33"/>
    </vehicle>
    <vehicle id="64" type="passenger" depart="3984.00">
        <route edges="-E37 -E15 E44"/>
    </vehicle>
    <vehicle id="65" type="passenger" depart="3990.00">
        <route edges="E34 E35 -E16"/>
    </vehicle>
    <vehicle id="66" type="passenger" depart="3996.00">
        <route edges="-E38 -E36 E34"/>
    </vehicle>
    <vehicle id="67" type="passenger" depart="4002.00">
        <route edges="E40 -E41 E15 E16 E29 E30"/>
    </vehicle>
    <vehicle id="68" type="passenger" depart="4008.00">
        <route edges="-E9 E13 E7 E15 E16 E29 E30 E31 E32 E33 E36 E39"/>
    </vehicle>
    <vehicle id="69" type="passenger" depart="4014.00">
        <route edges="E32 E33 E34 E35 -E16 -E15 E41 -E40"/>
    </vehicle>
    <vehicle id="70" type="passenger" depart="4020.00">
        <route edges="-E15 -E7 -E1 E1 E7 E15"/>
    </vehicle>
    <vehicle id="71" type="passenger" depart="4026.00">
        <route edges="-E45 -E15 -E7 E12 E11"/>
    </vehicle>
    <vehicle id="72" type="passenger" depart="4032.00">
        <route edges="E35 -E16 -E15 -E7"/>
    </vehicle>
    <vehicle id="73" type="passenger" depart="4038.00">
        <route edges="-E36 E34 E35 E29 E30 E31 E32 E33 E36 E39 E40 -E41 E15 E16"/>
    </vehicle>
    <vehicle id="74" type="passenger" depart="4044.00">
        <route edges="-E38 -E36 E34 E35 -E16 E45"/>
    </vehicle>
    <vehicle id="75" type="passenger" depart="4050.00">
        <route edges="-E7 -E1 E1 E7 E41 E43"/>
    </vehicle>
    <vehicle id="76" type="passenger" depart="4056.00">
        <route edges="E7 E41"/>
    </vehicle>
    <vehicle id="77" type="passenger" depart="4062.00">
        <route edges="E41 -E40 -E39 -E36 E34 E35 -E16 E45"/>
    </vehicle>
    <vehicle id="78" type="passenger" depart="4068.00">
        <route edges="E34 E35 -E16 -E15 E41 -E40 -E39"/>
    </vehicle>
    <vehicle id="79" type="passenger" depart="4074.00">
        <route edges="-E9 E13 E7 E15 E16 E29 E30 E31 E32 E33 E36 E39 E40 -E41"/>
    </vehicle>
    <vehicle id="80" type="passenger" depart="4080.00">
        <route edges="-E45 -E15"/>
    </vehicle>
    <vehicle id="81" type="passenger" depart="4086.00">
        <route edges="-E44 -E7 -E1 E2 E9"/>
    </vehicle>
    <vehicle id="82" type="passenger" depart="4092.00">
        <route edges="-E39 -E36 E34 E35 E29 E30 E31 E32 E33 E36 E39"/>
    </vehicle>
    <vehicle id="83" type="passenger" depart="4098.00">
        <route edges="-E7 -E1 E1 E7 E15"/>
    </vehicle>
    <vehicle id="84" type="passenger" depart="4104.00">
        <route edges="E41 -E40 -E39 -E36 E34 E35 -E16 -E15 -E7 -E1 E2 E9"/>
    </vehicle>
    <vehicle id="85" type="passenger" depart="4110.00">
        <route edges="-E2 E1"/>
    </vehicle>
    <vehicle id="86" type="passenger" depart="4116.00">
        <route edges="E41 -E40 -E39 -E36 E34 E35 E29 E30"/>
    </vehicle>
    <vehicle id="87" type="passenger" depart="4122.00">
        <route edges="-E10 E0 E1 E7 E15 E16 E29 E30 E31"/>
    </vehicle>
    <vehicle id="88" type="passenger" depart="4128.00">
        <route edges="E0 E1 E7 E41 E42"/>
    </vehicle>
    <vehicle id="89" type="passenger" depart="4134.00">
        <route edges="-E2 E1 E7"/>
    </vehicle>
    <vehicle id="90" type="passenger" depart="4140.00">
        <route edges="-E11 -E3 E1 E7 E41 -E40 -E39"/>
    </vehicle>
    <vehicle id="91" type="passenger" depart="4146.00">
        <route edges="E36 E39 E40 -E41 -E7"/>
    </vehicle>
    <vehicle id="92" type="passenger" depart="4152.00">
        <route edges="-E46 -E36 E34 E35 E29 E30 E31"/>
    </vehicle>
    <vehicle id="93" type="passenger" depart="4158.00">
        <route edges="E1 E7 E41 -E40 -E39 E46"/>
    </vehicle>
    <vehicle id="94" type="passenger" depart="4164.00">
        <route edges="-E36 E34 E35 E29 E30 E31 E32 E33 E36"/>
    </vehicle>
    <vehicle id="95" type="passenger" depart="4170.00">
        <route edges="-E41 E15 E16 E29 E30 E31 E32 E33 E36 E38"/>
    </vehicle>
    <vehicle id="96" type="passenger" depart="4176.00">
        <route edges="-E11 -E3 E1 E7 E15 E16"/>
    </vehicle>
    <vehicle id="97" type="passenger" depart="4182.00">
        <route edges="E7 E15 E16 E29 E30 E31 E32 E33 E36 E39 E40 -E41 -E7 -E1 E2 E9"/>
    </vehicle>
    <vehicle id="98" type="passenger" depart="4188.00">
        <route edges="-E11 -E3 E1 E7 E15 E16 E29 E30 E31 E32 E33 E36 E39 E40 -E41"/>
    </vehicle>
    <vehicle id="99" type="passenger" depart="4194.00">
        <route edges="-E39 E46"/>
    </vehicle>
    <vehicle id="100" type="passenger" depart="4200.00">
        <route edges="E35 E29 E30 E31 E32 E33 E36 E39 E40 E43"/>
    </vehicle>
    <vehicle id="101" type="passenger" depart="4206.00">
        <route edges="-E43 -E40 -E39 -E36"/>
    </vehicle>
    <vehicle id="102" type="passenger" depart="4212.00">
        <route edges="E33 E36"/>
    </vehicle>
    <vehicle id="103" type="passenger" depart="4218.00">
        <route edges="E15 E16 E29 E30 E31 E32 E33 E36 E39 E40 -E41 -E7 -E1 E2 E9"/>
    </vehicle>
    <vehicle id="104" type="passenger" depart="4224.00">
        <route edges="E33 E36 E39 E40 -E41 -E7 -E1 E1"/>
    </vehicle>
    <vehicle id="105" type="passenger" depart="4230.00">
        <route edges="-E15 -E7 -E1 E3"/>
    </vehicle>
    <vehicle id="106" type="passenger" depart="4236.00">
        <route edges="-E39 -E36 E34 E35 E29 E30 E31 E32"/>
    </vehicle>
    <vehicle id="107" type="passenger" depart="4242.00">
        <route edges="E29 E30 E31 E32 E33 E34 E35 -E16 -E15 E41 -E40"/>
    </vehicle>
    <vehicle id="108" type="passenger" depart="4248.00">
        <route edges="E0 E1 E7 E44"/>
    </vehicle>
    <vehicle id="109" type="passenger" depart="4254.00">
        <route edges="E34 E35 -E16"/>
    </vehicle>
    <vehicle id="110" type="passenger" depart="4260.00">
        <route edges="E3"/>
    </vehicle>
    <vehicle id="111" type="passenger" depart="4266.00">
        <route edges="-E46 E39 E40 -E41 -E7 -E1 -E0"/>
    </vehicle>
    <vehicle id="112" type="passenger" depart="4272.00">
        <route edges="-E11 -E3 E1 E7 E41 E43"/>
    </vehicle>
    <vehicle id="113" type="passenger" depart="4278.00">
        <route edges="E36 E39 E40 -E41 -E7 -E1 E3"/>
    </vehicle>
    <vehicle id="114" type="passenger" depart="4284.00">
        <route edges="E33 E34 E35 E29 E30 E31"/>
    </vehicle>
    <vehicle id="115" type="passenger" depart="4290.00">
        <route edges="-E41 E44"/>
    </vehicle>
    <vehicle id="116" type="passenger" depart="4296.00">
        <route edges="E32 E33 E36 E39 E40 E43"/>
    </vehicle>
    <vehicle id="117" type="passenger" depart="4302.00">
        <route edges="E36 E39 E40 -E41"/>
    </vehicle>
    <vehicle id="118" type="passenger" depart="4308.00">
        <route edges="E31 E32 E33 E36 E39 E40 -E41 E44"/>
    </vehicle>
    <vehicle id="119" type="passenger" depart="4314.00">
        <route edges="-E45 E16 E29 E30 E31 E32"/>
    </vehicle>
    <vehicle id="120" type="passenger" depart="4320.00">
        <route edges="-E2 E1 E7 E15 E45"/>
    </vehicle>
    <vehicle id="121" type="passenger" depart="4326.00">
        <route edges="E35 -E16 -E15 -E7 -E1 E1 E7"/>
    </vehicle>
    <vehicle id="122" type="passenger" depart="4332.00">
        <route edges="E32 E33 E36 E39 E40 E43"/>
    </vehicle>
    <vehicle id="123" type="passenger" depart="4338.00">
        <route edges="-E1 E1 E7 E15 E37"/>
    </vehicle>
    <vehicle id="124" type="passenger" depart="4344.00">
        <route edges="-E42 -E40 -E39 E46"/>
    </vehicle>
    <vehicle id="125" type="passenger" depart="4350.00">
        <route edges="E32 E33 E36 E39 E40 E43"/>
    </vehicle>
    <vehicle id="126" type="passenger" depart="4356.00">
        <route edges="E35 E29 E30 E31 E32 E33 E36 E39 E40 E42"/>
    </vehicle>
    <vehicle id="127" type="passenger" depart="4362.00">
        <route edges="-E37 -E15 E41"/>
    </vehicle>
    <vehicle id="128" type="passenger" depart="4368.00">
        <route edges="-E7 -E1 -E0 E10"/>
    </vehicle>
    <vehicle id="129" type="passenger" depart="4374.00">
        <route edges="E32 E33 E36 E39 E40 -E41"/>
    </vehicle>
    <vehicle id="130" type="passenger" depart="4380.00">
        <route edges="-E1 E1 E7 E41 -E40"/>
    </vehicle>
    <vehicle id="131" type="passenger" depart="4386.00">
        <route edges="-E42 E43"/>
    </vehicle>
    <vehicle id="132" type="passenger" depart="4392.00">
        <route edges="E41 -E40 -E39 -E36 E34 E35 -E16 -E15 -E7 -E1 E1"/>
    </vehicle>
    <vehicle id="133" type="passenger" depart="4398.00">
        <route edges="E7 E15 E16 E29 E30 E31 E32 E33 E36 E39 E40 -E41 -E7 -E1 E3"/>
    </vehicle>
    <vehicle id="134" type="passenger" depart="4404.00">
        <route edges="E41 -E40 -E39"/>
    </vehicle>
    <vehicle id="135" type="passenger" depart="4410.00">
        <route edges="-E15 -E7 -E1 E1 E7 E15"/>
    </vehicle>
    <vehicle id="136" type="passenger" depart="4416.00">
        <route edges="E15 E16 E29 E30 E31 E32 E33 E36 E39 E40 -E41 -E7 -E1 E2"/>
    </vehicle>
    <vehicle id="137" type="passenger" depart="4422.00">
        <route edges="-E44 E15 E16 E29 E30"/>
    </vehicle>
    <vehicle id="138" type="passenger" depart="4428.00">
        <route edges="-E38 -E36 E34 E35 E29 E30 E31 E32 E33 E36"/>
    </vehicle>
    <vehicle id="139" type="passenger" depart="4434.00">
        <route edges="-E43 -E40 -E39 -E36 E34 E35 -E16"/>
    </vehicle>
    <vehicle id="140" type="passenger" depart="4440.00">
        <route edges="-E41 -E7 -E1 E1 E7 E41 E42"/>
    </vehicle>
    <vehicle id="141" type="passenger" depart="4446.00">
        <route edges="E29 E30 E31 E32 E33 E36 E39 E40 -E41 -E7 -E1 E1"/>
    </vehicle>
    <vehicle id="142" type="passenger" depart="4452.00">
        <route edges="-E45 -E15 -E7 -E1 E1"/>
    </vehicle>
    <vehicle id="143" type="passenger" depart="4458.00">
        <route edges="-E16 -E15 -E7 -E1 E1 E7 E15"/>
    </vehicle>
    <vehicle id="144" type="passenger" depart="4464.00">
        <route edges="E40 -E41 E15 E16 E29 E30 E31 E32 E33 E34 E35"/>
    </vehicle>
    <vehicle id="145" type="passenger" depart="4470.00">
        <route edges="E36 E39 E40 -E41 E15 E16 E29 E30 E31 E32"/>
    </vehicle>
    <vehicle id="146" type="passenger" depart="4476.00">
        <route edges="-E40 -E39 -E36 E34 E35 -E16 -E15 -E7 -E1 E3"/>
    </vehicle>
    <vehicle id="147" type="passenger" depart="4482.00">
        <route edges="-E46 -E36 E34 E35 E29 E30"/>
    </vehicle>
    <vehicle id="148" type="passenger" depart="4488.00">
        <route edges="-E7 -E1 E1 E7 E15 E16 E29 E30 E31 E32 E33 E36 E39 E40 -E41"/>
    </vehicle>
    <vehicle id="149" type="passenger" depart="4494.00">
        <route edges="-E9 E13 E7 E44"/>
    </vehicle>
    <vehicle id="150" type="passenger" depart="4500.00">
        <route edges="E32 E33 E34 E35 -E16 -E15 E41 -E40 -E39"/>
    </vehicle>
    <vehicle id="151" type="passenger" depart="4506.00">
        <route edges="-E11 -E3 E1 E7 E15 E16 E29"/>
    </vehicle>
    <vehicle id="152" type="passenger" depart="4512.00">
        <route edges="E16 E29 E30 E31 E32 E33 E36 E39 E40 -E41 -E7 E12 E11"/>
    </vehicle>
    <vehicle id="153" type="passenger" depart="4518.00">
        <route edges="E33 E36 E38"/>
    </vehicle>
    <vehicle id="154" type="passenger" depart="4524.00">
        <route edges="-E36 E34 E35 -E16 -E15 -E7 -E1"/>
    </vehicle>
    <vehicle id="155" type="passenger" depart="4530.00">
        <route edges="E34 E35 -E16"/>
    </vehicle>
    <vehicle id="156" type="passenger" depart="4536.00">
        <route edges="-E45 E16 E29 E30 E31 E32 E33"/>
    </vehicle>
    <vehicle id="157" type="passenger" depart="4542.00">
        <route edges="-E36 E34 E35"/>
    </vehicle>
    <vehicle id="158" type="passenger" depart="4548.00">
        <route edges="E0 E1 E7 E15 E16 E29 E30 E31 E32 E33 E36 E39 E40 -E41 -E7"/>
    </vehicle>
    <vehicle id="159" type="passenger" depart="4554.00">
        <route edges="E30 E31 E32 E33 E36 E39"/>
    </vehicle>
    <vehicle id="160" type="passenger" depart="4560.00">
        <route edges="-E15 -E7 -E1 E1 E7 E15"/>
    </vehicle>
    <vehicle id="161" type="passenger" depart="4566.00">
        <route edges="-E3 E1 E7"/>
    </vehicle>
    <vehicle id="162" type="passenger" depart="4572.00">
        <route edges="E1 E7 E41 -E40 -E39 -E36 E34 E35 -E16 -E15"/>
    </vehicle>
    <vehicle id="163" type="passenger" depart="4578.00">
        <route edges="-E38 E39 E40 E42"/>
    </vehicle>
    <vehicle id="164" type="passenger" depart="4584.00">
        <route edges="-E7 -E1 E1 E7 E15 E16 E29 E30 E31 E32 E33 E36 E39 E40"/>
    </vehicle>
    <vehicle id="165" type="passenger" depart="4590.00">
        <route edges="E36 E39 E40 -E41 E15 E16 E29 E30 E31 E32"/>
    </vehicle>
    <vehicle id="166" type="passenger" depart="4596.00">
        <route edges="E29 E30 E31 E32 E33 E36 E39 E40 -E41 -E7 -E1 E2"/>
    </vehicle>
    <vehicle id="167" type="passenger" depart="4602.00">
        <route edges="E33 E36 E39 E40 -E41 -E7 -E1 E3"/>
    </vehicle>
    <vehicle id="168" type="passenger" depart="4608.00">
        <route edges="E36 E39 E40 -E41 E15 E37"/>
    </vehicle>
    <vehicle id="169" type="passenger" depart="4614.00">
        <route edges="-E38 -E36 E34 E35 E29 E30 E31 E32 E33"/>
    </vehicle>
    <vehicle id="170" type="passenger" depart="4620.00">
        <route edges="E30 E31 E32 E33 E34 E35 E29"/>
    </vehicle>
    <vehicle id="171" type="passenger" depart="4626.00">
        <route edges="-E11 -E3 E1"/>
    </vehicle>
    <vehicle id="172" type="passenger" depart="4632.00">
        <route edges="-E39 -E36 E34 E35 -E16 -E15 -E7 -E1 -E0 E10"/>
    </vehicle>
    <vehicle id="173" type="passenger" depart="4638.00">
        <route edges="-E37 E16 E29 E30 E31 E32 E33 E34 E35"/>
    </vehicle>
    <vehicle id="174" type="passenger" depart="4644.00">
        <route edges="E29 E30 E31 E32 E33 E34 E35 -E16 -E15"/>
    </vehicle>
    <vehicle id="175" type="passenger" depart="4650.00">
        <route edges="-E45 -E15 -E7 -E1 E3"/>
    </vehicle>
    <vehicle id="176" type="passenger" depart="4656.00">
        <route edges="-E45 -E15 E41 -E40"/>
    </vehicle>
    <vehicle id="177" type="passenger" depart="4662.00">
        <route edges="-E46 E39 E40 -E41 E44"/>
    </vehicle>
    <vehicle id="178" type="passenger" depart="4668.00">
        <route edges="E34 E35 E29 E30 E31 E32 E33 E36 E38"/>
    </vehicle>
    <vehicle id="179" type="passenger" depart="4674.00">
        <route edges="-E44 -E7 -E1 -E0"/>
    </vehicle>
    <vehicle id="180" type="passenger" depart="4680.00">
        <route edges="-E43 -E40 -E39 E38"/>
    </vehicle>
    <vehicle id="181" type="passenger" depart="4686.00">
        <route edges="E34 E35 E29 E30 E31 E32 E33 E36 E46"/>
    </vehicle>
    <vehicle id="182" type="passenger" depart="4692.00">
        <route edges="-E46 E38"/>
    </vehicle>
    <vehicle id="183" type="passenger" depart="4698.00">
        <route edges="-E37 E16 E29 E30 E31 E32 E33 E36 E39 E40 -E41"/>
    </vehicle>
    <vehicle id="184" type="passenger" depart="4704.00">
        <route edges="-E46 E39 E40 -E41 -E7 -E1"/>
    </vehicle>
    <vehicle id="185" type="passenger" depart="4710.00">
        <route edges="-E42 -E40 -E39 -E36 E34 E35"/>
    </vehicle>
    <vehicle id="186" type="passenger" depart="4716.00">
        <route edges="-E45 -E15 E41 -E40 -E39"/>
    </vehicle>
    <vehicle id="187" type="passenger" depart="4722.00">
        <route edges="E15 E16 E29 E30 E31 E32 E33 E36 E39 E40 -E41 -E7 -E1"/>
    </vehicle>
    <vehicle id="188" type="passenger" depart="4728.00">
        <route edges="-E44 E15 E16 E29 E30"/>
    </vehicle>
    <vehicle id="189" type="passenger" depart="4734.00">
        <route edges="-E1 E1 E7 E15 E16 E29 E30 E31 E32 E33"/>
    </vehicle>
    <vehicle id="190" type="passenger" depart="4740.00">
        <route edges="-E16 -E15 -E7 -E1 E1 E7 E15 E16"/>
    </vehicle>
    <vehicle id="191" type="passenger" depart="4746.00">
        <route edges="-E37 -E15 -E7 E12 E11"/>
    </vehicle>
    <vehicle id="192" type="passenger" depart="4752.00">
        <route edges="E30 E31 E32 E33 E34 E35 -E16 -E15 E41"/>
    </vehicle>
    <vehicle id="193" type="passenger" depart="4758.00">
        <route edges="-E38 -E36 E34 E35 -E16"/>
    </vehicle>
    <vehicle id="194" type="passenger" depart="4764.00">
        <route edges="E7 E15 E16 E29 E30 E31 E32 E33 E36 E39 E40 -E41 -E7 E12"/>
    </vehicle>
    <vehicle id="195" type="passenger" depart="4770.00">
        <route edges="E16 E29 E30 E31 E32 E33 E36 E39"/>
    </vehicle>
    <vehicle id="196" type="passenger" depart="4776.00">
        <route edges="E40 -E41 -E7 -E1 E1 E7 E41 -E40"/>
    </vehicle>
    <vehicle id="197" type="passenger" depart="4782.00">
        <route edges="-E16 -E15 E41 -E40 -E39 -E36 E34"/>
    </vehicle>
    <vehicle id="198" type="passenger" depart="4788.00">
        <route edges="E13 E7 E15 E16 E29 E30 E31 E32 E33 E36 E39 E40 -E41"/>
    </vehicle>
    <vehicle id="199" type="passenger" depart="4794.00">
        <route edges="E29 E30 E31 E32 E33 E36 E38"/>
    </vehicle>
    <vehicle id="200" type="passenger" depart="4800.00">
        <route edges="-E3 E1 E7 E15 E16 E29 E30 E31 E32"/>
    </vehicle>
    <vehicle id="201" type="passenger" depart="4806.00">
        <route edges="E33 E36 E39 E40 -E41 -E7 -E1 E1 E7"/>
    </vehicle>
    <vehicle id="202" type="passenger" depart="4812.00">
        <route edges="-E15 -E7 -E1"/>
    </vehicle>
    <vehicle id="203" type="passenger" depart="4818.00">
        <route edges="-E41 E15 E16 E29 E30 E31 E32 E33 E34 E35"/>
    </vehicle>
    <vehicle id="204" type="passenger" depart="4824.00">
        <route edges="E29 E30 E31 E32 E33 E34 E35 -E16"/>
    </vehicle>
    <vehicle id="205" type="passenger" depart="4830.00">
        <route edges="-E15 E41 -E40 -E39 -E36 E34 E35 E29 E30 E31 E32 E33 E36 E39"/>
    </vehicle>
    <vehicle id="206" type="passenger" depart="4836.00">
        <route edges="E34 E35 E29 E30 E31"/>
    </vehicle>
    <vehicle id="207" type="passenger" depart="4842.00">
        <route edges="-E16 -E15 -E7 -E1 E2 E9"/>
    </vehicle>
    <vehicle id="208" type="passenger" depart="4848.00">
        <route edges="E31 E32 E33 E36 E39 E40 -E41 -E7 E12 E11"/>
    </vehicle>
    <vehicle id="209" type="passenger" depart="4854.00">
        <route edges="-E46 E39 E40 -E41 -E7 E12"/>
    </vehicle>
    <vehicle id="210" type="passenger" depart="4860.00">
        <route edges="E0 E3 E11"/>
    </vehicle>
    <vehicle id="211" type="passenger" depart="4866.00">
        <route edges="E34 E35 -E16 -E15 E41"/>
    </vehicle>
    <vehicle id="212" type="passenger" depart="4872.00">
        <route edges="-E15 -E7 -E1 E1 E7"/>
    </vehicle>
    <vehicle id="213" type="passenger" depart="4878.00">
        <route edges="E16 E29 E30 E31 E32 E33 E34 E35 -E16 -E15 E41"/>
    </vehicle>
    <vehicle id="214" type="passenger" depart="4884.00">
        <route edges="E29 E30 E31 E32 E33 E36 E39 E40 -E41 E15"/>
    </vehicle>
    <vehicle id="215" type="passenger" depart="4890.00">
        <route edges="-E39 -E36 E34 E35 E29 E30 E31 E32 E33 E36 E39 E40"/>
    </vehicle>
    <vehicle id="216" type="passenger" depart="4896.00">
        <route edges="-E46 -E36 E34 E35 -E16 E37"/>
    </vehicle>
    <vehicle id="217" type="passenger" depart="4902.00">
        <route edges="-E39 -E36 E34 E35 E29 E30 E31 E32 E33 E36 E39 E40 E42"/>
    </vehicle>
    <vehicle id="218" type="passenger" depart="4908.00">
        <route edges="E33 E34 E35 -E16"/>
    </vehicle>
    <vehicle id="219" type="passenger" depart="4914.00">
        <route edges="E35 -E16 -E15 -E7"/>
    </vehicle>
    <vehicle id="220" type="passenger" depart="4920.00">
        <route edges="-E7 -E1 E1 E7 E15 E16 E29 E30 E31 E32"/>
    </vehicle>
    <vehicle id="221" type="passenger" depart="4926.00">
        <route edges="-E44 -E7 -E1"/>
    </vehicle>
    <vehicle id="222" type="passenger" depart="4932.00">
        <route edges="E34 E35 -E16 -E15 E41 -E40 -E39"/>
    </vehicle>
    <vehicle id="223" type="passenger" depart="4938.00">
        <route edges="-E37 E16 E29 E30 E31 E32 E33 E36 E39 E40"/>
    </vehicle>
    <vehicle id="224" type="passenger" depart="4944.00">
        <route edges="-E42 E43"/>
    </vehicle>
    <vehicle id="225" type="passenger" depart="4950.00">
        <route edges="-E11 -E3 E1 E7 E15 E16 E29 E30 E31 E32 E33 E36"/>
    </vehicle>