<configuration>
    <input>
        <net-file value="map.net.xml"/>
        <route-files value="cars.rou.xml"/>
    </input>

    <time>
        <begin value="0"/>
        
    </time>
</configuration>