<configuration>
    <input>
        <net-file value="map.net.xml"/>
        <route-files value="cars.rou.xml"/>
    </input>

    <processing>
        <lateral-resolution value="0.5"/>
	
        <collision.action value="teleport"/>
    	<collision.stoptime value="5"/>
    </processing>

    <time>
        <begin value="0"/>
        
    </time>
</configuration>